BEGIN OPTIONS
END OPTIONS

BEGIN PACKAGES
  DIS6 .\modelA\modelA.dis
  IC6 .\modelA\modelA.ic
  NPF6 .\modelA\modelA.npf
  OC6 .\modelA\modelA.oc
  CHD6 .\modelA\modelA.chd
END PACKAGES