BEGIN OPTIONS
	XT3D
END OPTIONS

BEGIN GRIDDATA
  ICELLTYPE
    CONSTANT 0
  K
    CONSTANT 10.0
  K22
    CONSTANT 20.0
  ANGLE1
    CONSTANT 45.0
END GRIDDATA