# File generated by Flopy version 3.3.7 on 06/01/2023 at 12:15:38.
BEGIN griddata
  strt
    CONSTANT       0.00000000
END griddata

