# File generated by Flopy version 3.3.7 on 06/01/2023 at 12:15:38.
BEGIN options
  PRINT_OPTION  all
END options

BEGIN nonlinear
  OUTER_DVCLOSE  1.00000000E-08
  OUTER_MAXIMUM  100
  UNDER_RELAXATION  dbd
END nonlinear

BEGIN linear
  INNER_MAXIMUM  300
  INNER_DVCLOSE  1.00000000E-08
  inner_rclose       0.00100000
  LINEAR_ACCELERATION  cg
  RELAXATION_FACTOR       0.0000000
  preconditioner_levels 2
END linear

