# File generated by Flopy version 3.3.7 on 06/01/2023 at 12:15:38.
BEGIN options
  TIME_UNITS  days
END options

BEGIN dimensions
  NPER  1
END dimensions

BEGIN perioddata
       1.00000000  1       1.00000000
END perioddata

