# File generated by Flopy version 3.3.7 on 06/01/2023 at 12:15:38.
BEGIN options
  XORIGIN     500.00000000
  YORIGIN       0.00000000
END options

BEGIN dimensions
  NLAY  1
  NROW  1
  NCOL  5
END dimensions

BEGIN griddata
  delr
    CONSTANT     100.00000000
  delc
    CONSTANT     100.00000000
  top
    CONSTANT       10.00000000
  botm
    CONSTANT    -100.00000000
END griddata

