# File generated by Flopy version 3.3.7 on 06/01/2023 at 12:15:38.
BEGIN options
END options

BEGIN packages
  DIS6  rightmodel.dis  dis
  IC6  rightmodel.ic  ic
  NPF6  rightmodel.npf  npf
  CHD6  rightmodel.chd  chd_0
END packages

