# File generated by Flopy version 3.3.7 on 06/01/2023 at 12:15:38.
BEGIN options
END options

BEGIN dimensions
  MAXBOUND  1
END dimensions

BEGIN period  1
  1 1 5      10.00000000
END period  1

