BEGIN OPTIONS
  auxiliary  angldegx
END OPTIONS

BEGIN DIMENSIONS
  NEXG 3
END DIMENSIONS

BEGIN EXCHANGEDATA
  # (l,r,c), (l,r,c), ihc, cl1, cl2, hwva, aux (=angldegx)
  1 1 3 1 1 1 1 0.5 0.5 1.0 0.0
  1 2 3 1 2 1 1 0.5 0.5 1.0 0.0
  1 3 3 1 3 1 1 0.5 0.5 1.0 0.0
END EXCHANGEDATA