BEGIN OPTIONS
  HEAD FILEOUT .\modelB\heads\modelB.hds
END OPTIONS

BEGIN PERIOD 1
  SAVE HEAD ALL
  PRINT HEAD ALL
END PERIOD