BEGIN OPTIONS
END OPTIONS

BEGIN GRIDDATA
  STRT
    CONSTANT 0.0
END GRIDDATA
