BEGIN OPTIONS
	MEMORY_PRINT_OPTION SUMMARY
END OPTIONS

BEGIN TIMING
	TDIS6 mfsim.tdis
END TIMING

BEGIN MODELS
	GWF6 modelA/modelA.nam modelA
    GWF6 modelB/modelB.nam modelB
END MODELS

BEGIN EXCHANGES
    GWF6-GWF6 exchanges/modelA_modelB.exc modelA modelB
END EXCHANGES

BEGIN SOLUTIONGROUP 1
	IMS6 solution.ims modelA modelB
END SOLUTIONGROUP