BEGIN OPTIONS
END OPTIONS

# The DIMENSIONS block is required
BEGIN DIMENSIONS
	MAXBOUND 2
END DIMENSIONS

#The following block of constant-head cells will be activated
#for stress period 1. This block will remain active throughout
#the simulation.
BEGIN PERIOD 1
	# l r c head
	# left
	1 1 1 1.
	1 1 6 2.
END PERIOD 1