# File generated by Flopy version 3.3.6 on 08/11/2022 at 08:18:23.
BEGIN options
  TIME_UNITS  days
END options

BEGIN dimensions
  NPER  1
END dimensions

BEGIN perioddata
       5.00000000  1       1.00000000
END perioddata

