# File generated by Flopy version 3.3.6 on 08/11/2022 at 08:18:23.
BEGIN options
  PRINT_FLOWS
END options

BEGIN dimensions
  MAXBOUND  2
END dimensions

BEGIN period  1
  1 1 1       1.00000000
  1 1 100       0.00000000
END period  1

