# File generated by Flopy version 3.3.6 on 08/11/2022 at 08:18:23.
BEGIN options
  BUDGET  FILEOUT  gwf_chd01.cbc
  HEAD  FILEOUT  gwf_chd01.hds
  HEAD  PRINT_FORMAT  COLUMNS  10  WIDTH  15  DIGITS  6  GENERAL
END options

BEGIN period  1
  SAVE  HEAD  LAST
  SAVE  BUDGET  LAST
  PRINT  HEAD  LAST
  PRINT  BUDGET  LAST
END period  1

