# File generated by Flopy version 3.3.6 on 08/11/2022 at 08:18:23.
BEGIN options
  SAVE_FLOWS
END options

BEGIN packages
  DIS6  gwf_chd01.dis  dis
  IC6  gwf_chd01.ic  ic
  NPF6  gwf_chd01.npf  npf
  CHD6  gwf_chd01.chd  chd-1
  OC6  gwf_chd01.oc  oc
END packages

