# File generated by Flopy version 3.3.6 on 08/11/2022 at 08:18:23.
BEGIN griddata
  strt
    CONSTANT       1.00000000
END griddata

