# File generated by Flopy version 3.3.6 on 08/11/2022 at 08:18:23.
BEGIN options
  MEMORY_PRINT_OPTION ALL
END options

BEGIN timing
  TDIS6  chd01.tdis
END timing

BEGIN models
  gwf6  gwf_chd01.nam  gwf_chd01
END models

BEGIN exchanges
END exchanges

BEGIN solutiongroup  1
  ims6  gwf_chd01.ims  gwf_chd01
END solutiongroup  1

