BEGIN OPTIONS
  HEAD FILEOUT .\par1\heads\par1.hds
END OPTIONS

BEGIN PERIOD 1
  SAVE HEAD ALL
  PRINT HEAD ALL
END PERIOD