BEGIN OPTIONS
  HEAD FILEOUT .\par2\heads\par2.hds
END OPTIONS

BEGIN PERIOD 1
  SAVE HEAD ALL
  PRINT HEAD ALL
END PERIOD