BEGIN OPTIONS
END OPTIONS

BEGIN GRIDDATA
  ICELLTYPE
    CONSTANT 0
  K
    CONSTANT 1.0
  K33
    CONSTANT 1.0
END GRIDDATA