BEGIN OPTIONS
  PRINT_INPUT
  PRINT_FLOWS
END OPTIONS

BEGIN dimensions
  MAXBOUND  2
END dimensions

BEGIN PERIOD  1
    OPEN/CLOSE  'flw0.bin'  (BINARY)
END PERIOD  1
