BEGIN griddata
  strt
    CONSTANT 1.0
END griddata
