# File generated by Flopy version 3.6.0.dev0 on 02/16/2024 at 08:47:40.
BEGIN options
  SAVE_FLOWS
END options

BEGIN period  1
  STEADY-STATE
END period  1

BEGIN period  2
  TRANSIENT
END period  2