BEGIN options
  PRINT_INPUT
  PRINT_FLOWS
END options

BEGIN dimensions
  NEXG  3
END dimensions

BEGIN exchangedata
  1  1 1 1       1.00000000       1.00000000
  2  1 1 2       1.00000000       1.00000000
  3  1 1 3       1.00000000       1.00000000
END exchangedata

