BEGIN OPTIONS
  AUXILIARY  aux1  aux2
  BOUNDNAMES
  PRINT_INPUT
  PRINT_TEMPERATURE
  PRINT_FLOWS
  SAVE_FLOWS
  TEMPERATURE  FILEOUT  gwe_mwe_02.mwe.bin
  BUDGET  FILEOUT  gwe_mwe_02.mwe.bud
  OBS6  FILEIN  gwe_mwe_02.mwe.obs
END OPTIONS

BEGIN PACKAGEDATA
# L    STRT      aux1       aux2    bname
  1   10.00     99.00     999.00    MYWELL1
  2   10.00     99.00     999.00    MYWELL2
  3   10.00     99.00     999.00    MYWELL3
END PACKAGEDATA

BEGIN PERIOD  1
  1  STATUS  ACTIVE
  2  STATUS  ACTIVE
  3  STATUS  ACTIVE
END PERIOD  1
