BEGIN OPTIONS
  CPW   4180.0  
  RHOW   999.0  
  LATENT_HEAT_VAPORIZATION 2.454E+06
END OPTIONS

BEGIN GRIDDATA
  POROSITY
    CONSTANT  0.1
  CPS
    CONSTANT  880.0
  RHOS
    CONSTANT  2650.0
END GRIDDATA

