BEGIN OPTIONS
  HEAT_CAPACITY_WATER   4180.0  
  DENSITY_WATER   999.0  
  LATENT_HEAT_VAPORIZATION 2.454E+06
END OPTIONS

BEGIN GRIDDATA
  POROSITY
    CONSTANT  0.1
  HEAT_CAPACITY_SOLID
    CONSTANT  880.0
  DENSITY_SOLID
    CONSTANT  2650.0
END GRIDDATA

