BEGIN OPTIONS
  SCHEME UPSTREAM
END OPTIONS
