BEGIN OPTIONS
  PRINT_FLOWS
  PRINT_INPUT
  SAVE_FLOWS
END OPTIONS

BEGIN DIMENSIONS
  MAXBOUND  1
END DIMENSIONS

BEGIN PERIOD 1
  3 1 1 15.0
  3 2 1 15.5
  3 3 1 16.0
END PERIOD
