BEGIN OPTIONS
  LATENT_HEAT_VAPORIZATION
END OPTIONS

BEGIN GRIDDATA
  POROSITY
    CONSTANT  0.1
  CPS
    CONSTANT  880.0
  RHOS
    CONSTANT  2650.0
END GRIDDATA

BEGIN PACKAGEDATA
    4180.0  1000.0  2.454E+06
END PACKAGEDATA
