BEGIN OPTIONS
  PRINT_FLOWS
  SAVE_FLOWS
END OPTIONS

BEGIN SOURCES
# pname   srctype        auxname
  WEL-1       AUX    TEMPERATURE
  LAK-1       AUX    TEMPERATURE
  RCH-1       AUX    TEMPERATURE
END SOURCES

BEGIN FILEINPUT
  GHB-1 SPC6 FILEINPUT mymodel.ghb1.spc
  DRN-1 SPC6 FILEINPUT mymodel.drn1.spc
END FILEINPUT