#The OPTIONS block is optional
BEGIN OPTIONS
END OPTIONS

#The GRIDDATA block is required
BEGIN GRIDDATA
  STRT LAYERED
    CONSTANT  10.0  # Initial Temperature (C) layer   1
    CONSTANT  10.0  # Initial Temperature (C) layer   2
END GRIDDATA
