BEGIN OPTIONS
  PRINT_INPUT
  PRINT_FLOWS
  SAVE_FLOWS
  BUDGET FILEOUT mygwemodel.mve.bud
END OPTIONS
