BEGIN OPTIONS
  PRINT_FLOWS
  PRINT_INPUT
  SAVE_FLOWS
END OPTIONS

BEGIN DIMENSIONS
  MAXBOUND  1
END DIMENSIONS

BEGIN PERIOD 1
  1 1 1 1500000.0
END PERIOD
