BEGIN OPTIONS
  AUXILIARY  aux1  aux2
  BOUNDNAMES
  PRINT_INPUT
  PRINT_TEMPERATURE
  PRINT_FLOWS
  SAVE_FLOWS
  TEMPERATURE  FILEOUT  gwe_02.uze.bin
  BUDGET  FILEOUT  gwe_02.uze.bud
  OBS6  FILEIN  gwe_02.uze.obs
END OPTIONS

BEGIN PACKAGEDATA
# L    STRT    aux1     aux2  bname
  1     0.0    99.0    999.0  MYUZFCELL1
  2     0.0    99.0    999.0  MYUZFCELL2
  3     0.0    99.0    999.0  MYUZFCELL3
END PACKAGEDATA

BEGIN PERIOD  1
  1  STATUS  ACTIVE
  2  STATUS  ACTIVE
  3  STATUS  ACTIVE
END PERIOD  1
