BEGIN OPTIONS
END OPTIONS

BEGIN GRIDDATA
  ALH
    CONSTANT 1.
  ALV
    CONSTANT 1.
  ATH1
    CONSTANT 0.1
  ATH2
    CONSTANT 0.1
  ATV
    CONSTANT 0.1
  KTW
    CONSTANT 0.5918
  KTS
    CONSTANT 0.27
END GRIDDATA
