BEGIN OPTIONS
  TEMPERATURE FILEOUT  gw_temperatures.ucn
  TEMPERATURE PRINT_FORMAT  COLUMNS 15  WIDTH 7  DIGITS 2  FIXED
END OPTIONS

BEGIN PERIOD 1
  PRINT BUDGET ALL
  SAVE TEMPERATURE ALL
  PRINT TEMPERATURE ALL
END PERIOD
