BEGIN OPTIONS
  DIGITS 7
  PRINT_INPUT
END OPTIONS

BEGIN CONTINUOUS FILEOUT my_model.src.obs.csv
# obsname           obstype  ID
  esrc_7_102_17      SRC      7  102  17
  esrc_7_102_17      SRC      CW_1
  esources           SRC      esources
END CONTINUOUS
