BEGIN OPTIONS
  VISCREF 8.904E-04
  THERMAL_FORMULATION  NONLINEAR  
  THERMAL_A2 10.0
  THERMAL_A3 248.37
  THERMAL_A4 133.15
  VISCOSITY  FILEOUT  GWF-VSC.vsc.bin
END OPTIONS

BEGIN DIMENSIONS
  NVISCSPECIES 2
END DIMENSIONS

BEGIN PACKAGEDATA
#  ISPEC DVISCDC  CVISCREF  MODELNAME  AUXSPECIESNAME
       1 1.92e-6       0.0   GWT-SALT        SALINITY
       2    0.00      25.0   GWT-TEMP     TEMPERATURE
END PACKAGEDATA
