#The OPTIONS block is optional
BEGIN OPTIONS
END OPTIONS

BEGIN griddata
  strt  LAYERED
    CONSTANT     400.00000000
    CONSTANT     400.00000000
    CONSTANT     400.00000000
END griddata
