BEGIN OPTIONS
  VISCREF 8.904E-04
  VISCOSITY  FILEOUT  GWF-VSC.vsc.bin
  THERMAL_VISCOSITY_FUNC  NONLINEAR  10.0  248.37  133.15
END OPTIONS

BEGIN DIMENSIONS
  NVISCSPECIES 2
END DIMENSIONS

BEGIN PACKAGEDATA
#  ISPEC DVISCDC  CVISCREF  MODELNAME  AUXSPECIESNAME
       1 1.92e-6       0.0   GWT-SALT        SALINITY
       2    0.00      25.0   GWT-TEMP     TEMPERATURE
END PACKAGEDATA
