begin options
  print_input
  print_head
  print_flows
  boundnames
  flowing_wells
end options

begin dimensions
  nmawwells 1
end dimensions

begin packagedata
# ifno radius bottom strt   condeqn ngwnodes name
     1   0.15 -514.9 9.14 specified        2 ntwell
end packagedata

begin connectiondata
# ifno conn l  r  c  stop   sbot         k  rskin
     1    1 1 51 51   -50 -514.9  111.3763      0
     1    2 2 51 51   -50 -514.9  445.9849      0
end connectiondata

begin period 1
  1 rate 0
  1 flowing_well 0. 7500. 0.5
end period
