begin options
  print_input
  print_head
  print_flows
  boundnames
  head fileout maw-1.head.bin
  budget fileout maw-1.cbc
end options

begin dimensions
  nmawwells 2
end dimensions

begin packagedata
# ifno radius bottom strt condeqn ngwnodes name          
     1   0.15 -100.0 9.14   thiem        2 pwell
     2   0.25 -100.0 9.14   thiem        1 iwell
end packagedata

begin connectiondata
# ifno conn l  r  c  stop sbot  k  rskin
     1    1 1 51 51     0    0  0      0
     1    2 2 51 51     0    0  0      0
     2    1 2  2  2     0    0  0      0
end connectiondata

begin period 1
  1 rate_scaling -90. 5.
  1 rate -1767.
  2 status inactive
end period

begin period 100
  2 status active
  2 rate 529.
  1 rate -2767.
end period
