# This block is optional
BEGIN OPTIONS
  PRINT_INPUT
  PRINT_FLOWS
  SAVE_FLOWS
END OPTIONS

# List of packages.  List can be listed in any order.
BEGIN PACKAGES
  IC6           bcf2ss.ic
  NPF6          bcf2ss.npf
  WEL6          bcf2ss.wel  WEL-COUNTY
  RIV6          bcf2ss.riv
  RCH6          bcf2ss.rch
  OC6           bcf2ss.oc
  DIS6          bcf2ss.dis
END PACKAGES
