BEGIN OPTIONS
  PRINT_INPUT
END OPTIONS

BEGIN DIMENSIONS
  MAXHFB 1
END DIMENSIONS

BEGIN PERIOD 1
  #L1 R1 C1 L2 R2 C2 HYDCHR
    1  1  4  1  1  5 0.1
END PERIOD 1
