BEGIN OPTIONS
  LENGTH_UNITS METERS
END OPTIONS

BEGIN DIMENSIONS
  NODES 9
  NJA 33
END DIMENSIONS

BEGIN GRIDDATA
  TOP
    CONSTANT 0.
  BOT
    CONSTANT -10
  AREA
    INTERNAL FACTOR 1
      10000 10000 10000 10000 10000 10000 10000 10000 10000
END GRIDDATA

BEGIN CONNECTIONDATA
  IHC
    CONSTANT 1
  IAC
    INTERNAL FACTOR 1
    3 4 3 4 5 4 3 4 3 
  JA
    INTERNAL FACTOR 1
    1 2 4 
    2 1 3 5 
    3 2 6 
    4 1 5 7 
    5 2 4 6 8 
    6 3 5 9 
    7 4 8 
    8 5 7 9 
    9 6 8 
  CL12
    INTERNAL FACTOR 1
    0 50 50 
    0 50 50 50 
    0 50 50 
    0 50 50 50 
    0 50 50 50 50 
    0 50 50 50 
    0 50 50 
    0 50 50 50 
    0 50 50 
  HWVA
    INTERNAL FACTOR 1
    0 100 100 
    0 100 100 100 
    0 100 100 
    0 100 100 100 
    0 100 100 100 100 
    0 100 100 100 
    0 100 100 
    0 100 100 100 
    0 100 100 
END CONNECTIONDATA