BEGIN OPTIONS
  DIGITS 7
  PRINT_INPUT
END OPTIONS

BEGIN CONTINUOUS FILEOUT my_model.gen.obs.csv
# obsname      obstype  ID
  gen-2-6-10   GEN      2   6   10
  gen-2-7-10   GEN      2   7   10
END CONTINUOUS
