#The OPTIONS block is optional
BEGIN OPTIONS
  AUXILIARY temperature
  BOUNDNAMES
  PRINT_INPUT
  PRINT_FLOWS
  SAVE_FLOWS
END OPTIONS

#The DIMENSIONS block is required
BEGIN DIMENSIONS
  MAXBOUND 2
END DIMENSIONS

#The following block of constant-head cells will be activated
#for stress period 1.  This block will remain active throughout
#the simulation.

BEGIN PERIOD 1
#l r c  head  temperature  boundname
 1 1 2  100.  20.5         chd_1_2
 1 1 3  100.  20.4         chd_1_3
END PERIOD 1
