BEGIN OPTIONS
  DENSEREF 1000.
END OPTIONS

BEGIN DIMENSIONS
  NRHOSPECIES 2
END DIMENSIONS

BEGIN PACKAGEDATA
  #ISPEC DRHODC   CRHOREF MODELNAME   AUXSPECIESNAME
       1     0.7       0.     GWT-1         SALINITY
       2  -0.375      25.     GWT-2      TEMPERATURE
END PACKAGEDATA