BEGIN OPTIONS
  SAVE_FLOWS
END OPTIONS

BEGIN GRIDDATA
  #
  #icelltype(nodes) is 0:confined, 1:convertible
  icelltype  LAYERED
    CONSTANT  1
    CONSTANT  0
    CONSTANT  0
  #
  # horizontal hydraulic conductivity
  k  LAYERED
    CONSTANT      50.00000000
    CONSTANT       0.01000000
    CONSTANT     200.00000000
  #
  # vertical hydraulic conductivity
  k33  LAYERED
    CONSTANT      10.00000000
    CONSTANT       0.01000000
    CONSTANT      20.00000000
END GRIDDATA
