BEGIN OPTIONS
  DENSEREF 1000.0
  DRHODC 0.7143
END OPTIONS
