BEGIN OPTIONS
  PRINT_INPUT
END OPTIONS

BEGIN DIMENSIONS
  NUMVKD 1
  NUMELEVS 2
END DIMENSIONS

BEGIN PACKAGEDATA
  # L  R  C EIP(1) EIP(2) KIP(1) KIP(2)
    1  1  4   0.25    0.5    1.0    1.5
END PACKAGEDATA
