BEGIN OPTIONS
  DIGITS 8
  PRINT_INPUT
END OPTIONS

BEGIN CONTINUOUS FILEOUT my_model.chd01.csv
# obsname  obstype   ID
  chd_2_1  CHD       1 1 2
  chd_2_2  CHD       1 2 2
  chd_2_3  CHD       1 3 2
  chd_2_4  CHD       1 4 2
END CONTINUOUS

BEGIN CONTINUOUS FILEOUT my_model.chd02.csv
# obsname     obstype   ID
  chd_3_flow  CHD       CHD_1_3
END CONTINUOUS