BEGIN OPTIONS
END OPTIONS

BEGIN GRIDDATA
  POROSITY
    CONSTANT  0.1
END GRIDDATA
