BEGIN OPTIONS
  SORBTION
  FIRST_ORDER_DECAY
  CIM FILEOUT gwtmodel.imd1.ucn
END OPTIONS

BEGIN GRIDDATA
  ZETAIM
    CONSTANT 0.01
  THETAIM
    CONSTANT 0.025
  BULK_DENSITY
    CONSTANT       0.25000000
  DISTCOEF
    CONSTANT       0.01000000
  DECAY_RATE
    CONSTANT       0.01000000
  DECAY_RATE_SORBED
    CONSTANT       0.01000000
END GRIDDATA
