BEGIN options
  DIGITS  7
  PRINT_INPUT
END options

BEGIN continuous  FILEOUT  gwt_lkt02.lkt.obs.csv
  lkt-1-conc  CONCENTRATION  1
  lkt-1-extinflow  EXT-INFLOW  1
  lkt-1-rain  RAINFALL  1
  lkt-1-roff  RUNOFF  1
  lkt-1-evap  EVAPORATION  1
  lkt-1-wdrl  WITHDRAWAL  1
  lkt-1-stor  STORAGE  1
  lkt-1-const  CONSTANT  1
  lkt-1-gwt1  LKT  1  1
  lkt-1-gwt2  LKT  1  2
  lkt-2-gwt1  LKT  2  1
  lkt-1-mylake1  LKT  MYLAKE1
END continuous  FILEOUT  gwt_lkt02.lkt.obs.csv
