# This block is optional
BEGIN OPTIONS
END OPTIONS

BEGIN PACKAGES
  DIS6       transport.dis
  IC6        transport.ic
  STO6       transport.sto
  ADV6       transport.adv
  DSP6       transport.dsp
  CNC6       transport.cnc
  SSM6       transport.ssm
  OC6        transport.oc
END PACKAGES

