BEGIN options
  DIGITS  7
  PRINT_INPUT
END options

BEGIN continuous  FILEOUT  gwt_02.uzt.obs.csv
# obs_name      obs_type         ID
  mwt-1-conc    CONCENTRATION     1
  mwt-1-stor    STORAGE           1
  mwt-1-gwt1    UZT               1
  mwt-1-gwt2    UZT               2
  mwt-2-gwt1    UZT               3
END continuous
