BEGIN OPTIONS
  XT3D
END OPTIONS

BEGIN GRIDDATA
  DIFFC
    CONSTANT  1.e-9
  ALH
    CONSTANT 1.
  ALV
    CONSTANT 1.
  ATH
    CONSTANT 0.1
  ATV
    CONSTANT 0.1
END GRIDDATA
