BEGIN OPTIONS
  PRINT_FLOWS
  SAVE_FLOWS
END OPTIONS

BEGIN SOURCES
# pname   srctype        auxname
  WEL-1       AUX  CONCENTRATION
  LAK-1       AUX  CONCENTRATION
  EVT-1  AUXMIXED         ETCONC
END SOURCES

BEGIN FILEINPUT
  GHB-1 SPC6 FILEINPUT mymodel.ghb1.spc
  EVT-2 SPC6 FILEINPUT mymodel.evt2.spca MIXED
END FILEINPUT