BEGIN OPTIONS
  SORPTION
  FIRST_ORDER_DECAY
  CIM FILEOUT gwtmodel.imd1.ucn
END OPTIONS

BEGIN GRIDDATA
  ZETAIM
    CONSTANT 0.01
  THETAIM
    CONSTANT 0.025
  BULK_DENSITY
    CONSTANT       0.25000000
  DISTCOEF
    CONSTANT       0.01000000
  DECAY
    CONSTANT       0.01000000
  DECAY_SORBED
    CONSTANT       0.01000000
END GRIDDATA
