BEGIN OPTIONS
  PRINT_INPUT
  BOUNDNAMES
  PRINT_CONCENTRATION
  PRINT_FLOWS
  CONCENTRATION FILEOUT lak-1.conc.bin
  BUDGET FILEOUT gwt-lak-1.cbc
END OPTIONS

BEGIN DIMENSIONS
  NLAKES 1
END DIMENSIONS

BEGIN PACKAGEDATA
# lakeno    strt   boundname
       1   35.00      LAKE_1
END PACKAGEDATA

BEGIN PERIOD 1
  1 RAINFALL 1.02
END PERIOD

BEGIN PERIOD 100
  1 STATUS CONSTANT
  1 STAGE 17.5
END PERIOD
