BEGIN OPTIONS
  SORBTION
  FIRST_ORDER_DECAY
END OPTIONS

BEGIN GRIDDATA
  POROSITY
    CONSTANT  0.1
  DECAY_RATE
    CONSTANT 0.001
  DECAY_RATE_SORBED
    CONSTANT 0.001
  BULK_DENSITY
    CONSTANT 1.
  DISTCOEF
    CONSTANT 0.01
END GRIDDATA
