BEGIN OPTIONS
  DIGITS 8
  PRINT_INPUT
END OPTIONS

BEGIN CONTINUOUS FILEOUT my_model.cnc01.csv
# obsname  obstype   ID
  cnc_2_1  CNC       1 1 2
  cnc_2_2  CNC       1 2 2
  cnc_2_3  CNC       1 3 2
  cnc_2_4  CNC       1 4 2
END CONTINUOUS

BEGIN CONTINUOUS FILEOUT my_model.chd02.csv
# obsname     obstype   ID
  cnc_3_flow  CNC       CNC_1_3
END CONTINUOUS