BEGIN OPTIONS
  FIRST_ORDER_DECAY
END OPTIONS

BEGIN GRIDDATA
  RHOB
    CONSTANT       1.00000000
  DISTCOEF
    CONSTANT       1.00000000
  RC
    CONSTANT       0.002
END GRIDDATA

