BEGIN OPTIONS
  SORBTION
  DECAYORDER ONE
END OPTIONS

BEGIN GRIDDATA
  ZETAIM
    CONSTANT 0.01
  THETAIM
    CONSTANT 0.025
  RHOB
    CONSTANT       0.25000000
  DISTCOEF
    CONSTANT       0.01000000
  RC1
    CONSTANT       0.01000000
  RC2
    CONSTANT       0.01000000
END GRIDDATA
