BEGIN options
  DIGITS  7
  PRINT_INPUT
END options

BEGIN continuous  FILEOUT  gwt_mwt02.mwt.obs.csv
  mwt-1-conc  CONCENTRATION  1
  mwt-1-stor  STORAGE  1
  mwt-1-const  CONSTANT  1
  mwt-1-gwt1  MWT  1  1
  mwt-1-gwt2  MWT  1  2
  mwt-2-gwt1  MWT  2  1
  mwt-1-mywell1  MWT  MYWELL1
  mwt-1-fjf  FLOW-JA-FACE  1  2
  mwt-2-fjf  FLOW-JA-FACE  2  1
  mwt-3-fjf  FLOW-JA-FACE  2  3
  mwt-4-fjf  FLOW-JA-FACE  3  2
  mwt-5-fjf  FLOW-JA-FACE  MYWELL1
  mwt-6-fjf  FLOW-JA-FACE  MYWELL2
  mwt-7-fjf  FLOW-JA-FACE  MYWELL3
END continuous
