BEGIN OPTIONS
  PRINT_INPUT
  PRINT_FLOWS
  SAVE_FLOWS
  BUDGET FILEOUT mygwtmodel.mvt.bud
END OPTIONS
