BEGIN OPTIONS
END OPTIONS

BEGIN GRIDDATA
  RC
    CONSTANT       0.002
END GRIDDATA

