BEGIN OPTIONS
  GWFBUDGET FILEIN mygwfmodel.bud
  GWFHEAD FILEIN mygwfmodel.hds
END OPTIONS
