BEGIN OPTIONS
  SORPTION linear
  FIRST_ORDER_DECAY
END OPTIONS

BEGIN GRIDDATA
  POROSITY
    CONSTANT  0.1
  DECAY
    CONSTANT 0.001
  DECAY_SORBED
    CONSTANT 0.001
  BULK_DENSITY
    CONSTANT 1.
  DISTCOEF
    CONSTANT 0.01
END GRIDDATA
