#The OPTIONS block is optional
BEGIN OPTIONS
  PRINT_INPUT
END OPTIONS

#The DIMENSIONS block is required
BEGIN DIMENSIONS
  NGE0 1
END DIMENSIONS

#The PACKAGEDATA block is required
BEGIN PACKAGEDATA
# cellid  npoints  xcoords            zcoords
       8        5  1. 1. 2.5 2.5 1. 1.5 0. 0. 1.5 1.5
END PACKAGEDATA
