#The OPTIONS block is optional
BEGIN OPTIONS
  PRINT_INPUT
END OPTIONS

#The DIMENSIONS block is required
BEGIN DIMENSIONS
  NGE0 4
END DIMENSIONS

#The PACKAGEDATA block is required
BEGIN PACKAGEDATA
# cellid   radius
       1      0.5
       2      0.6
       3      0.7
       5      1.0
END PACKAGEDATA
