#The OPTIONS block is optional
BEGIN OPTIONS
  AUXILIARY temperature
  BOUNDNAMES
  PRINT_INPUT
  PRINT_FLOWS
  SAVE_FLOWS
END OPTIONS

#The DIMENSIONS block is required
BEGIN DIMENSIONS
  MAXBOUND 2
END DIMENSIONS

#The following block of constant-head cells will be activated
#for stress period 1.  This block will remain active throughout
#the simulation.

BEGIN PERIOD 1
#node   head  temperature  boundname
    7   88.   20.5         coastal
    8   87.25 20.4         coastal
END PERIOD 1
