BEGIN OPTIONS
  HEAD FILEOUT AdvGW_tidal.hds
  BUDGET FILEOUT AdvGW_tidal.cbc
  HEAD PRINT_FORMAT COLUMNS 100 WIDTH 15 DIGITS 4 GENERAL
END OPTIONS

BEGIN PERIOD 1
  PRINT HEAD FIRST
  PRINT HEAD LAST
  PRINT BUDGET LAST
  SAVE HEAD ALL
  SAVE BUDGET ALL
END PERIOD

# No output for stress periods 2 through 24
BEGIN PERIOD 2
END PERIOD

BEGIN PERIOD 25
  PRINT HEAD STEPS 6 12 23
  SAVE BUDGET FIRST
  SAVE BUDGET LAST
  SAVE BUDGET FREQUENCY 5
END PERIOD
