#The OPTIONS block is optional
BEGIN OPTIONS
END OPTIONS

#The GRIDDATA block is required
BEGIN GRIDDATA
  STRT
    CONSTANT   0.0  Initial Head layer
END GRIDDATA
