#The OPTIONS block is optional
BEGIN OPTIONS
  PRINT_INPUT
END OPTIONS

#The DIMENSIONS block is required
BEGIN DIMENSIONS
  NGE0 3
END DIMENSIONS

#The PACKAGEDATA block is required
BEGIN PACKAGEDATA
# cellid    width   height
       4      1.5      1.4
       7      1.5      1.5
       6      1.4      1.3
END PACKAGEDATA
