BEGIN options
END options

BEGIN griddata
  strt NETCDF
END griddata
