# GWF Model input name file
BEGIN options
  NETCDF_MESH2D FILEOUT gwf.nc # configure mesh type model NetCDF timeseries export
  NETCDF FILEIN gwf.in.nc # configure model NetCDF griddata input file
END options

BEGIN packages
  DISV6  gwf.disv  disv
  IC6  gwf.ic  ic
  NPF6  gwf.npf  npf
  CHD6  gwf.chd  chd_0
END packages
