BEGIN options
END options

BEGIN griddata
  icelltype  NETCDF
  k  NETCDF
END griddata
