# File generated by Flopy version 3.6.0.dev0 on 02/16/2024 at 08:47:40.
BEGIN options
  BUDGET  FILEOUT  olfmodel.bud
  STAGE  FILEOUT  olfmodel.stage
END options

BEGIN period  1
  SAVE  STAGE  ALL
  SAVE  BUDGET  ALL
  PRINT  STAGE  LAST
  PRINT  BUDGET  ALL
END period  1