BEGIN OPTIONS
  PRINT_INPUT
  PRINT_FLOWS
END OPTIONS

BEGIN dimensions
  MAXBOUND  2
END dimensions

BEGIN PERIOD  1
    1 0.005
    2 0.007
END PERIOD  1
