BEGIN options
  CENTRAL_IN_SPACE
  SAVE_FLOWS
  PRINT_FLOWS
END options

BEGIN griddata
  manningsn
    CONSTANT       0.01250000
END griddata
