BEGIN OPTIONS
  STOPTIME 10000.
  BOUNDNAMES
END OPTIONS

BEGIN DIMENSIONS
  NRELEASEPTS 3
END DIMENSIONS

BEGIN PACKAGEDATA
  1    1  3    1250. 10250. 400.  relpt_001
  2    1  3    1255. 10250. 390.  relpt_002
  3    1  23   1250.  9450. 400.  relpt_003
END PACKAGEDATA

BEGIN PERIOD 1
  FIRST
END PERIOD