BEGIN OPTIONS
  FLOW_IMBALANCE_CORRECTION
END OPTIONS

BEGIN PACKAGEDATA
  PRTBUDGET FILEIN ../flow/mygwfmodel.bud
  PRTHEAD FILEIN   ../flow/mygwfmodel.hds
END PACKAGEDATA