BEGIN OPTIONS
  CONCENTRATION FILEOUT  transport.ucn
  CONCENTRATION PRINT_FORMAT  COLUMNS 15  WIDTH 7  DIGITS 2  FIXED
END OPTIONS

BEGIN PERIOD 1
  PRINT BUDGET ALL
  SAVE CONCENTRATION ALL
  PRINT CONCENTRATION ALL
END PERIOD
