# Comment for this TDIS input file

BEGIN OPTIONS
  TIME_UNITS DAYS
END OPTIONS

BEGIN DIMENSIONS
  NPER 2
END DIMENSIONS

BEGIN PERIODDATA
   365.00  1 1.0   Items: PERLEN NSTP TSMULT
   365.00 10 1.2   Items: PERLEN NSTP TSMULT
END PERIODDATA
