BEGIN OPTIONS
END OPTIONS

BEGIN DIMENSIONS
  NODES  4
  NVERT  5
END DIMENSIONS

BEGIN GRIDDATA
  segment_length
    CONSTANT    1000.00000000
  tosegment
    INTERNAL  FACTOR  1
    3  3  4  0
  idomain
    CONSTANT  1
END GRIDDATA

BEGIN VERTICES
  1       0.00000000       0.00000000       0.00000000
  2       0.00000000       1.00000000       0.00000000
  3       1.00000000       0.00000000       0.00000000
  4       2.00000000       0.00000000       0.00000000
  5       3.00000000       0.00000000       0.00000000
END VERTICES

BEGIN CELL2D
  1       0.50000000  2  2  3
  2       0.50000000  2  1  3
  3       0.50000000  2  3  4
  4       0.50000000  2  4  5
END CELL2D

