BEGIN options
  SAVE_FLOWS
END options

BEGIN packages
  DISL6  swfmodel.disl
  DFW6  swfmodel.dfw
  STO6  swfmodel.sto
  IC6  swfmodel.ic
  CXS6  swfmodel.cxs
  OC6  swfmodel.oc
  FLW6  swfmodel.flw  flw-1
  CHD6  swfmodel.chd  chd-1
END packages