BEGIN OPTIONS
END OPTIONS

BEGIN DIMENSIONS
  NODES  4
  NVERT  5
END DIMENSIONS

BEGIN GRIDDATA
  length
    CONSTANT    1.0
  width
    CONSTANT    0.5
  idomain
    CONSTANT  1
END GRIDDATA

BEGIN VERTICES
  1  0.0 0.0
  2  0.0 1.0
  3  1.0 0.0
  4  2.0 0.0
  5  3.0 0.0
END VERTICES

BEGIN CELL2D
  1  0.5  2  2  3
  2  0.5  2  1  3
  3  0.5  2  3  4
  4  0.5  2  4  5
END CELL2D

