BEGIN options
  CENTRAL_IN_SPACE
  SAVE_FLOWS
  PRINT_FLOWS
END options

BEGIN griddata
  width
    CONSTANT      40.00000000
  manningsn
    CONSTANT       0.01250000
  slope
    CONSTANT  1.00000000E-04
  idcxs
    CONSTANT  1
END griddata
