BEGIN OPTIONS
END OPTIONS

BEGIN DIMENSIONS
  NODES  4
  NVERT  9
END DIMENSIONS

BEGIN GRIDDATA
  bottom
    CONSTANT  0.0
END GRIDDATA

BEGIN VERTICES
  1  0.0 0.0
  2  1.0 0.0
  3  2.0 0.0
  4  0.0 1.0
  5  1.0 1.0
  6  2.0 1.0
  7  0.0 2.0
  8  1.0 2.0
  9  2.0 2.0
END VERTICES

BEGIN CELL2D
  1 0.5 0.5 4 1 2 5 4
  2 1.5 0.5 4 2 3 6 5
  3 0.5 1.5 4 4 5 8 7
  4 1.5 1.5 4 5 6 9 8
END CELL2D