BEGIN OPTIONS
  DIGITS 10
  PRINT_INPUT
END OPTIONS

BEGIN CONTINUOUS FILEOUT my_model.gwf.head.csv
# obsname   obstype   ID 
  L1        HEAD      1 51 51 # heads at lay 1 row 51 col 51
  L2        HEAD      2 51 51 # heads at lay 2 row 51 col 51
END CONTINUOUS

BEGIN CONTINUOUS FILEOUT my_model.gwf.ddn.csv
# obsname   obstype   ID 
  L1ddn     DRAWDOWN  1 51 51 # heads at lay 1 row 51 col 51
  L2ddn     DRAWDOWN  2 51 51 # heads at lay 2 row 51 col 51
END CONTINUOUS

BEGIN CONTINUOUS FILEOUT my_model.gwf.flow.csv
# obsname    obstype       ID       ID1
  L1rfflow   FLOW-JA-FACE  1 51 51  1 51 52
  L2rfflow   FLOW-JA-FACE  2 51 51  2 51 52
  L1-L2flow  FLOW-JA-FACE  1 51 51  2 51 51
END CONTINUOUS

