begin dimensions
  nrow  9
  ncol  2
end dimensions

begin table
# fractional_width    depth
             0.000       1.
             0.125       1.
             0.250       1.
             0.375       0.
             0.500       0.
             0.625       0.
             0.750       1.
             0.875       1.
             1.000       1.
end table
