begin dimensions
  nrow 11
  ncol  2
end dimensions

begin table
# xfrac     depth
    0.0       1.0
    0.1       1.0
    0.2       1.0
    0.3       0.0
    0.4       0.0
    0.5       0.0
    0.6       0.0
    0.7       0.0
    0.8       1.0
    0.9       1.0
    1.0       1.0
end table
