begin dimensions
  nrow 11
  ncol  3
end dimensions

begin table
# stage    volume     sarea
      0        0.        0.
      1       0.5        1.
      2       1.0        2.
      3       2.0        2.
      4       3.0        2.
      5       4.0        2.
      6       5.0        2.
      7       6.0        2.
      8       7.0        2.
      9       8.0        2.
     10       9.0        2.
end table
