BEGIN OPTIONS
	MEMORY_PRINT_OPTION SUMMARY
END OPTIONS

BEGIN TIMING
	TDIS6 mfsim.tdis
END TIMING

BEGIN MODELS
    GWF6 par1/par1.nam par1
    GWF6 par2/par2.nam par2
END MODELS

BEGIN EXCHANGES
	GWF6-GWF6 exchanges\par1_par2.exc par1 par2
END EXCHANGES

BEGIN SOLUTIONGROUP 1
	IMS6 solution.ims par1 par2
END SOLUTIONGROUP