# TDIS input file
BEGIN OPTIONS
	TIME_UNITS DAYS
END OPTIONS

BEGIN DIMENSIONS
	NPER 1
END DIMENSIONS

BEGIN PERIODDATA
	1.000000 1 1.0
END PERIODDATA