BEGIN OPTIONS
  PRINT_OPTION ALL
END OPTIONS

BEGIN NONLINEAR
  OUTER_HCLOSE 1E-08
  OUTER_MAXIMUM 1000
END NONLINEAR

BEGIN LINEAR
  INNER_HCLOSE 1E-08
  INNER_RCLOSE 0.01
  INNER_MAXIMUM 1000
  LINEAR_ACCELERATION CG
END LINEAR