BEGIN OPTIONS
END OPTIONS

BEGIN DIMENSIONS
  NEXG 5
END DIMENSIONS

BEGIN EXCHANGEDATA
  1 1 5 1 1 1 1 0.5 0.5 0.2
  1 2 5 1 2 1 1 0.5 0.5 0.2
  1 3 5 1 3 1 1 0.5 0.5 0.2
  1 4 5 1 4 1 1 0.5 0.5 0.2
  1 5 5 1 5 1 1 0.5 0.5 0.2
END EXCHANGEDATA