# File generated by Flopy version 3.5.0.dev0 on 03/14/2024 at 07:01:37.
BEGIN options
  PRINT_INPUT
END options

BEGIN dimensions
  MAXBOUND  10
END dimensions

BEGIN period  1
  1 1 15 -4.00000000E+01
  1 2 15 -4.00000000E+01
  1 3 15 -4.00000000E+01
  1 4 15 -4.00000000E+01
  1 5 15 -4.00000000E+01
  1 6 15 -4.00000000E+01
  1 7 15 -4.00000000E+01
  1 8 15 -4.00000000E+01
  1 9 15 -4.00000000E+01
  1 10 15 -4.00000000E+01
END period  1

