# File generated by Flopy version 3.5.0.dev0 on 03/14/2024 at 07:01:37.
BEGIN griddata
  strt
    CONSTANT     -40.00000000
END griddata

