# File generated by Flopy version 3.5.0.dev0 on 03/14/2024 at 07:01:37.
BEGIN options
  REWET  WETFCT       1.00000000  IWETIT  1  IHDWET  1
END options

BEGIN griddata
  icelltype
    CONSTANT  1
  k
    CONSTANT      10.00000000
  wetdry
    CONSTANT      -0.00100000
END griddata

