# File generated by Flopy version 3.5.0.dev0 on 03/14/2024 at 07:01:37.
BEGIN options
  BUDGET  FILEOUT  gwf0.cbc
  HEAD  FILEOUT  gwf0.hds
  HEAD  PRINT_FORMAT  COLUMNS  10  WIDTH  15  DIGITS  6  general
END options

BEGIN period  1
  SAVE  head  last
  PRINT  head  last
  PRINT  budget  last
END period  1

