# File generated by Flopy version 3.5.0.dev0 on 03/14/2024 at 07:01:37.
BEGIN options
END options

BEGIN dimensions
  NLAY  1
  NROW  10
  NCOL  15
END dimensions

BEGIN griddata
  delr
    CONSTANT     500.00000000
  delc
    CONSTANT     500.00000000
  top
    CONSTANT     150.00000000
  botm
    CONSTANT     -50.00000000
END griddata

