# File generated by Flopy version 3.5.0.dev0 on 03/14/2024 at 07:01:37.
BEGIN options
END options

BEGIN packages
  dis6  gwf0.dis
  ic6  gwf0.chd
  npf6  gwf0.npf
  chd6  gwf0.chd1.chd
  chd6  gwf0.chd2.chd
  oc6  gwf0.oc  oc
END packages

