# File generated by Flopy version 3.5.0.dev0 on 03/14/2024 at 07:01:37.
BEGIN options
  PRINT_OPTION  all
  CSV_OUTER_OUTPUT  FILEOUT  npf02_hreweta.outer.ims.csv
  CSV_INNER_OUTPUT  FILEOUT  npf02_hreweta.inner.ims.csv
END options

BEGIN nonlinear
  OUTER_DVCLOSE       0.10000000
  OUTER_MAXIMUM  1000
  UNDER_RELAXATION  none
END nonlinear

BEGIN linear
  INNER_MAXIMUM  100
  INNER_DVCLOSE       0.10000000
  inner_rclose       0.01000000
  LINEAR_ACCELERATION  cg
  RELAXATION_FACTOR       1.00000000
  SCALING_METHOD  none
  REORDERING_METHOD  none
END linear

