BEGIN OPTIONS
  GWFMODELNAME1 <gwfmodelname1>
  GWFMODELNAME2 <gwfmodelname2>
  [AUXILIARY <auxiliary(naux)>]
  [BOUNDNAMES]
  [PRINT_INPUT]
  [PRINT_FLOWS]
  [SAVE_FLOWS]
  [ADVSCHEME <advscheme>]
  [XT3D_OFF]
  [XT3D_RHS]
  [MVT6 FILEIN <mvt6_filename>]
  [OBS6 FILEIN <obs6_filename>]
END OPTIONS
