BEGIN DIMENSIONS
  NEXG <nexg>
END DIMENSIONS
