BEGIN OPTIONS
  [PRINT_INPUT]
  [PRINT_FLOWS]
  [FIXED_CONDUCTANCE]
  [OBS6 FILEIN <obs6_filename>]
END OPTIONS
