BEGIN OPTIONS
  [SAVE_FLOWS]
  [FIRST_ORDER_DECAY]
  [ZERO_ORDER_DECAY]
  [LATENT_HEAT_VAPORIZATION]
END OPTIONS
