BEGIN OPTIONS
  [EXPORT_ARRAY_ASCII]
  [EXPORT_ARRAY_NETCDF]
END OPTIONS
