BEGIN OPTIONS
  [BUDGET FILEOUT <budgetfile>]
  [BUDGETCSV FILEOUT <budgetcsvfile>]
  [TEMPERATURE FILEOUT <temperaturefile>]
  [TEMPERATURE PRINT_FORMAT COLUMNS <columns> WIDTH <width> DIGITS <digits> <format>]
END OPTIONS
