BEGIN OPTIONS
  [XT3D_OFF]
  [XT3D_RHS]
END OPTIONS
