BEGIN OPTIONS
  [XT3D_OFF]
  [XT3D_RHS]
  [EXPORT_ARRAY_ASCII]
END OPTIONS
