BEGIN GRIDDATA
  TOP
    <top(ncpl)> -- READARRAY
  BOTM [LAYERED]
    <botm(nlay, ncpl)> -- READARRAY
  [IDOMAIN [LAYERED]
    <idomain(nlay, ncpl)> -- READARRAY]
END GRIDDATA
