BEGIN OPTIONS
  [SAVE_FLOWS]
  [ZERO_ORDER_DECAY]
  [RHOW <rhow>]
  [CPW <cpw>]
  [LATENT_HEAT_VAPORIZATION <latent_heat_vaporization>]
END OPTIONS
