BEGIN GRIDDATA
  TOP
    <top(nodes)> -- READARRAY
  BOT
    <bot(nodes)> -- READARRAY
  AREA
    <area(nodes)> -- READARRAY
  [IDOMAIN [LAYERED]
    <idomain(nodes)> -- READARRAY]
END GRIDDATA
