BEGIN DIMENSIONS
  MAXBOUND <maxbound>
  NSEG <nseg>
END DIMENSIONS
