BEGIN DIMENSIONS
  NLAKES <nlakes>
  NOUTLETS <noutlets>
  NTABLES <ntables>
END DIMENSIONS
