BEGIN OPTIONS
  [SAVE_FLOWS]
  [STORAGECOEFFICIENT]
END OPTIONS
