BEGIN OPTIONS
  [STRAIN_CSV_INTERBED FILEOUT <interbedstrainfile>]
  [STRAIN_CSV_SKELETAL FILEOUT <skeletalstrainfile>]
  [SAVE_FLOWS]
  [GAMMAW <gammaw>]
  [BETA <beta>]
  [TIME_WEIGHT <time_weight>]
  [HEAD_BASED]
  [DELAY_FULL_CELL]
  [NDELAYCELLS <ndelaycells>]
  [DELAY_SATURATION_SCALING]
  [SPECIFIED_INITIAL_INTERBED_STATE]
  [SPECIFIED_INITIAL_PRECONSOLIDATION_STRESS]
  [SPECIFIED_INITIAL_DELAY_HEAD]
  [GEO_STRESS_OFFSET]
  [COMPRESSION_INDICES]
  [UPDATE_MATERIAL_PROPERTIES]
  [CELL_FRACTION]
  [COMPACTION FILEOUT <compactionfile>]
  [TS6 FILEIN <ts6_filename>]
  [OBS6 FILEIN <obs6_filename>]
END OPTIONS
