BEGIN DIMENSIONS
  NREACHES <nreaches>
END DIMENSIONS
