BEGIN DIMENSIONS
  MAXHFB <maxhfb>
END DIMENSIONS
