BEGIN DIMENSIONS
  NVISCSPECIES <nviscspecies>
END DIMENSIONS
