BEGIN GRIDDATA
  CG_SKE_CR
    <cg_ske_cr(nodes)> -- READARRAY
  CG_THETA
    <cg_theta(nodes)> -- READARRAY
  [SGM
    <sgm(nodes)> -- READARRAY]
  [SGS
    <sgs(nodes)> -- READARRAY]
END GRIDDATA
