BEGIN GRIDDATA
  SKE_CR [LAYERED]
    <ske_cr(nodes)> -- READARRAY
  SK_THETA [LAYERED]
    <sk_theta(nodes)> -- READARRAY
  [SGM [LAYERED]
    <sgm(nodes)> -- READARRAY]
  [SGS [LAYERED]
    <sgs(nodes)> -- READARRAY]
END GRIDDATA
