BEGIN OPTIONS
  [VISCREF <viscref>]
  [VISCOSITY FILEOUT <viscosityfile>]
  [THERMAL_VISCOSITY_FUNC FORMULATION <formulation> [A2 <a2>] [A3 <a3>] [A4 <a4>]]
  FORMULATION <formulation>
END OPTIONS
