BEGIN OPTIONS
  [HHFORMULATION_RHS]
  [DENSEREF <denseref>]
END OPTIONS
