BEGIN GRIDDATA
  ICELLTYPE [LAYERED]
    <icelltype(nodes)> -- READARRAY
  K [LAYERED]
    <k(nodes)> -- READARRAY
  [K22 [LAYERED]
    <k22(nodes)> -- READARRAY]
  [K33 [LAYERED]
    <k33(nodes)> -- READARRAY]
  [WETDRY [LAYERED]
    <wetdry(nodes)> -- READARRAY]
  [ANGLE1 [LAYERED]
    <angle1(nodes)> -- READARRAY]
  [ANGLE2 [LAYERED]
    <angle2(nodes)> -- READARRAY]
  [ANGLE3 [LAYERED]
    <angle3(nodes)> -- READARRAY]
END GRIDDATA
