BEGIN OPTIONS
  [SAVE_FLOWS]
  [GAMMAW <gammaw>]
  [BETA <beta>]
  [TIME_WEIGHT <time_weight>]
  [HEAD_BASED]
  [DELAY_FULL_CELL]
  [NDELAYCELLS <ndelaycells>]
  [INTERBED_STRESS_OFFSET]
  [GEO_STRESS_OFFSET]
  [COMPRESSION_INDICES]
  [UPDATE_MATERIAL_PROPERTIES]
  [CELL_FRACTION]
  [COMPACTION FILEOUT <compactionfile>]
  [TS6 FILEIN <ts6_filename>]
  [OBS6 FILEIN <obs6_filename>]
END OPTIONS
