BEGIN DIMENSIONS
  NRHOSPECIES <nrhospecies>
END DIMENSIONS
