BEGIN DIMENSIONS
  NIBCCELLS <nibccells>
END DIMENSIONS
