BEGIN DIMENSIONS
  NUZFCELLS <nuzfcells>
  NTRAILWAVES <ntrailwaves>
  NWAVESETS <nwavesets>
END DIMENSIONS
