BEGIN OPTIONS
  [DENSEREF <denseref>]
END OPTIONS
