BEGIN OPTIONS
  [[HHFORMULATION] [LHS]]
  [DENSEREF <denseref>]
  [DRHODC <drhodc>]
END OPTIONS
