BEGIN OPTIONS
  [SAVE_FLOWS]
  [STORAGECOEFFICIENT]
  [SS_CONFINED_ONLY]
  [TVS6 FILEIN <tvs6_filename>]
  [EXPORT_ARRAY_ASCII]
  [EXPORT_ARRAY_NETCDF]
END OPTIONS
