BEGIN OPTIONS
  [SAVE_FLOWS]
  [STORAGECOEFFICIENT]
  [SS_CONFINED_ONLY]
  [TVS6 FILEIN <tvs_filename>]
END OPTIONS
