BEGIN OPTIONS
  [DENSEREF <denseref>]
  [DRHODC <drhodc>]
END OPTIONS
