BEGIN DIMENSIONS
  MAXMVR <maxmvr>
  MAXPACKAGES <maxpackages>
END DIMENSIONS
