BEGIN DIMENSIONS
  NINTERBEDS <ninterbeds>
  [MAXSIG0 <maxsig0>]
END DIMENSIONS
