BEGIN OPTIONS
  [HHFORMULATION_RHS]
  [DENSEREF <denseref>]
  [DENSITY FILEOUT <densityfile>]
END OPTIONS
