BEGIN GRIDDATA
  TOP [LAYERED]
    <top(nodes)> -- READARRAY
  BOT [LAYERED]
    <bot(nodes)> -- READARRAY
  AREA [LAYERED]
    <area(nodes)> -- READARRAY
END GRIDDATA
