BEGIN DIMENSIONS
  NUMVKD <numvkd>
  NUMELEVS <numelevs>
END DIMENSIONS
