BEGIN DIMENSIONS
  NINTERBEDS <ninterbeds>
END DIMENSIONS
