BEGIN DIMENSIONS
  NMAWWELLS <nmawwells>
END DIMENSIONS
