BEGIN DIMENSIONS
  NUMGNC <numgnc>
  NUMALPHAJ <numalphaj>
END DIMENSIONS
