BEGIN OPTIONS
  [HHFORMULATION]
  [DENSEREF <denseref>]
  [DRHODC <drhodc>]
END OPTIONS
