BEGIN GRIDDATA
  ICONVERT [LAYERED]
    <iconvert(nodes)> -- READARRAY
  SS [LAYERED]
    <ss(nodes)> -- READARRAY
  SY [LAYERED]
    <sy(nodes)> -- READARRAY
END GRIDDATA
