BEGIN DIMENSIONS
  NREACHES <nreaches>
  NTABLES <ntables>
END DIMENSIONS
