BEGIN OPTIONS
  [SAVE_FLOWS]
  [NDELAYCELLS <ndelaycells>]
  [INTERBED_STRESS_OFFSET]
  [GEO_STRESS_OFFSET]
  [STORAGECOEFFICIENT]
  [CONSTANT_THICKNESS]
  [CELL_FRACTION]
  [COMPACTION FILEOUT <compactionfile>]
  [TS6 FILEIN <ts6_filename>]
  [OBS6 FILEIN <obs6_filename>]
END OPTIONS
