BEGIN OPTIONS
  [DISABLE_STORAGE_CHANGE_INTEGRATION]
  [TS6 FILEIN <ts6_filename>]
END OPTIONS
