BEGIN OPTIONS
  [SCHEME <scheme>]
  [ATS_COURANT <ats_courant>]
END OPTIONS
