BEGIN GRIDDATA
  POROSITY [LAYERED]
    <porosity(nodes)> -- READARRAY
END GRIDDATA
