BEGIN DIMENSIONS
  NODES <nodes>
  NJA <nja>
  [NVERT <nvert>]
END DIMENSIONS
