BEGIN GRIDDATA
  RC [LAYERED]
    <rc(nodes)> -- READARRAY
END GRIDDATA
