BEGIN OPTIONS
  [SAVE_FLOWS]
  [SORBTION]
  [DECAYORDER <decayorder>]
  [CIM FILEOUT <cimfile>]
  [CIM PRINT_FORMAT COLUMNS <columns> WIDTH <width> DIGITS <digits> <format>]
END OPTIONS
