BEGIN OPTIONS
  [PRINT_INPUT]
  [PRINT_FLOWS]
  [SAVE_FLOWS]
  [BUDGET FILEOUT <budgetfile>]
  [BUDGETCSV FILEOUT <budgetcsvfile>]
END OPTIONS
