BEGIN GRIDDATA
  DELR [LAYERED]
    <delr(ncol)> -- READARRAY
  DELC [LAYERED]
    <delc(nrow)> -- READARRAY
  TOP [LAYERED]
    <top(ncol, nrow)> -- READARRAY
  BOTM [LAYERED]
    <botm(ncol, nrow, nlay)> -- READARRAY
  [IDOMAIN [LAYERED]
    <idomain(ncol, nrow, nlay)> -- READARRAY]
END GRIDDATA
