BEGIN DIMENSIONS
  NLAKES <nlakes>
END DIMENSIONS
