BEGIN OPTIONS
  [SAVE_FLOWS]
  [SORBTION]
  [DECAYORDER <decayorder>]
END OPTIONS
