BEGIN OPTIONS
  [SAVE_FLOWS]
  [ZERO_ORDER_DECAY]
END OPTIONS
