BEGIN OPTIONS
  [EXPORT_ARRAY_ASCII]
END OPTIONS
