BEGIN OPTIONS
  [SAVE_FLOWS]
  [FIRST_ORDER_DECAY]
  [ZERO_ORDER_DECAY]
  [SORBTION]
END OPTIONS
