BEGIN GRIDDATA
  DIFFC [LAYERED]
    <diffc(nodes)> -- READARRAY
END GRIDDATA
