BEGIN OPTIONS
  [LENGTH_UNITS <length_units>]
  [NOGRB]
  [XORIGIN <xorigin>]
  [YORIGIN <yorigin>]
  [ANGROT <angrot>]
  [EXPORT_ARRAY_ASCII]
  [EXPORT_ARRAY_NETCDF]
  [NCF6 FILEIN <ncf6_filename>]
END OPTIONS
