BEGIN GRIDDATA
  POROSITY [LAYERED]
    <porosity(nodes)> -- READARRAY
  DECAY [LAYERED]
    <decay(nodes)> -- READARRAY
  DECAY_SORBED [LAYERED]
    <decay_sorbed(nodes)> -- READARRAY
  [BULK_DENSITY [LAYERED]
    <bulk_density(nodes)> -- READARRAY]
  [DISTCOEF [LAYERED]
    <distcoef(nodes)> -- READARRAY]
END GRIDDATA
