BEGIN GRIDDATA
  [CIM [LAYERED]
    <cim(nodes)> -- READARRAY]
  THETAIM [LAYERED]
    <thetaim(nodes)> -- READARRAY
  ZETAIM [LAYERED]
    <zetaim(nodes)> -- READARRAY
  RHOB [LAYERED]
    <rhob(nodes)> -- READARRAY
  DISTCOEF [LAYERED]
    <distcoef(nodes)> -- READARRAY
  RC1 [LAYERED]
    <rc1(nodes)> -- READARRAY
  RC2 [LAYERED]
    <rc2(nodes)> -- READARRAY
END GRIDDATA
