BEGIN GRIDDATA
  [DIFFC [LAYERED]
    <diffc(nodes)> -- READARRAY]
  [ALH [LAYERED]
    <alh(nodes)> -- READARRAY]
  [ALV [LAYERED]
    <alv(nodes)> -- READARRAY]
  [ATH [LAYERED]
    <ath(nodes)> -- READARRAY]
  [ATV [LAYERED]
    <atv(nodes)> -- READARRAY]
END GRIDDATA
