BEGIN OPTIONS
  [FLOW_IMBALANCE_CORRECTION]
END OPTIONS
