BEGIN OPTIONS
  [GWFBUDGET FILEIN <gwfbudgetfile>]
  [GWFHEAD FILEIN <gwfheadfile>]
END OPTIONS
