BEGIN OPTIONS
  [SAVE_FLOWS]
  [SORBTION]
  [DECAYORDER <decayorder>]
  [DUALDOMAIN [IMMOBILEDOMAINSORPTION]]
END OPTIONS
