BEGIN OPTIONS
  [FLOW_IMBALANCE_CORRECTION]
  [GWFBUDGET FILEIN <gwfbudgetfile>]
  [GWFHEAD FILEIN <gwfheadfile>]
END OPTIONS
