BEGIN DIMENSIONS
  NLAY <nlay>
  NROW <nrow>
  NCOL <ncol>
END DIMENSIONS
