BEGIN OPTIONS
  [PRINT_FLOWS]
END OPTIONS
