BEGIN OPTIONS
  [SCHEME <scheme>]
END OPTIONS
