BEGIN GRIDDATA
  [DIFFC [LAYERED]
    <diffc(nodes)> -- READARRAY]
  [ALH [LAYERED]
    <alh(nodes)> -- READARRAY]
  [ALV [LAYERED]
    <alv(nodes)> -- READARRAY]
  [ATH1 [LAYERED]
    <ath1(nodes)> -- READARRAY]
  [ATH2 [LAYERED]
    <ath2(nodes)> -- READARRAY]
  [ATV [LAYERED]
    <atv(nodes)> -- READARRAY]
END GRIDDATA
