BEGIN OPTIONS
  [PRINT_INPUT]
END OPTIONS
