BEGIN GRIDDATA
  [IDOMAIN
    <idomain(nodes)> -- READARRAY]
END GRIDDATA
