BEGIN GRIDDATA
  [IDOMAIN [LAYERED]
    <idomain(nodes)> -- READARRAY]
END GRIDDATA
