BEGIN DIMENSIONS
  NGEO <ngeo>
END DIMENSIONS
