BEGIN GRIDDATA
  STRT
    <strt(nodes)> -- READARRAY
END GRIDDATA
