BEGIN OPTIONS
  [LIST <list>]
  [PRINT_INPUT]
  [PRINT_FLOWS]
  [SAVE_FLOWS]
END OPTIONS
