BEGIN OPTIONS
  [SAVE_FLOWS]
END OPTIONS
