BEGIN DIMENSIONS
  NRELEASEPTS <nreleasepts>
END DIMENSIONS
