BEGIN OPTIONS
  [ZERO_METHOD <zero_method>]
END OPTIONS
