BEGIN DIMENSIONS
  NLAY <nlay>
  NCPL <ncpl>
  NVERT <nvert>
END DIMENSIONS
