BEGIN OPTIONS
  [BUDGET FILEOUT <budgetfile>]
  [BUDGETCSV FILEOUT <budgetcsvfile>]
  [CONCENTRATION FILEOUT <concentrationfile>]
  [CONCENTRATION PRINT_FORMAT COLUMNS <columns> WIDTH <width> DIGITS <digits> <format>]
  [TRACK FILEOUT <trackfile>]
  [TRACKCSV FILEOUT <trackcsvfile>]
  [TRACK_ALL]
  [TRACK_RELEASE]
  [TRACK_TRANSIT]
  [TRACK_TIMESTEP]
  [TRACK_TERMINATE]
  [TRACK_WEAKSINK]
  [TRACK_USERTIME]
  [TRACK_TIMES <times(unknown)>]
  [TRACK_TIMESFILE <timesfile>]
END OPTIONS
