BEGIN OPTIONS
  [ZERO_METHOD <zero_method>]
  [EXPORT_ARRAY_ASCII]
END OPTIONS
