BEGIN DIMENSIONS
  NPER <nper>
END DIMENSIONS
