BEGIN OPTIONS
  [PRINT_OPTION <print_option>]
  [COMPLEXITY <complexity>]
  [CSV_OUTPUT FILEOUT <csvfile>]
  [NO_PTC [<no_ptc_option>]]
END OPTIONS
