BEGIN OPTIONS
  [PRINT_OPTION <print_option>]
  [COMPLEXITY <complexity>]
  [CSV_OUTPUT FILEOUT <csvfile>]
END OPTIONS
