BEGIN DIMENSIONS
  NODES <nodes>
  [NVERT <nvert>]
END DIMENSIONS
