BEGIN GRIDDATA
  LENGTH
    <length(nodes)> -- READARRAY
  WIDTH
    <width(nodes)> -- READARRAY
  BOTTOM
    <bottom(nodes)> -- READARRAY
  [IDOMAIN
    <idomain(nodes)> -- READARRAY]
END GRIDDATA
