BEGIN OPTIONS
  [CENTRAL_IN_SPACE]
  [LENGTH_CONVERSION <length_conversion>]
  [TIME_CONVERSION <time_conversion>]
  [SAVE_FLOWS]
  [PRINT_FLOWS]
  [SAVE_VELOCITY]
  [OBS6 FILEIN <obs6_filename>]
  [EXPORT_ARRAY_ASCII]
END OPTIONS
