BEGIN DIMENSIONS
  NSECTIONS <nsections>
  NPOINTS <npoints>
END DIMENSIONS
