BEGIN GRIDDATA
  BOTTOM
    <bottom(nodes)> -- READARRAY
  [IDOMAIN
    <idomain(nodes)> -- READARRAY]
END GRIDDATA
