BEGIN GRIDDATA
  STRT [LAYERED]
    <strt(nodes)> -- READARRAY
END GRIDDATA
