BEGIN OPTIONS
  [SAVE_FLOWS]
  [EXPORT_ARRAY_ASCII]
END OPTIONS
