BEGIN GRIDDATA
  MANNINGSN
    <manningsn(nodes)> -- READARRAY
  [IDCXS
    <idcxs(nodes)> -- READARRAY]
END GRIDDATA
