BEGIN DIMENSIONS
  NROW <nrow>
  NCOL <ncol>
END DIMENSIONS
