BEGIN GRIDDATA
  WIDTH
    <width(nodes)> -- READARRAY
  MANNINGSN
    <manningsn(nodes)> -- READARRAY
  SLOPE
    <slope(nodes)> -- READARRAY
  [IDCXS
    <idcxs(nodes)> -- READARRAY]
END GRIDDATA
