BEGIN OPTIONS
  READASARRAYS
  [PRINT_INPUT]
  [TAS6 FILEIN <tas6_filename>]
END OPTIONS
