BEGIN OPTIONS
  [PRECISION <precision>]
  [DIGITS <digits>]
  [PRINT_INPUT]
END OPTIONS
