BEGIN DIMENSIONS
  MAXBOUND <maxbound>
END DIMENSIONS
