BEGIN DIMENSIONS
  MAXATS <maxats>
END DIMENSIONS
