BEGIN OPTIONS
  [TS6 FILEIN <ts6_filename>]
END OPTIONS
