BEGIN OPTIONS
  [PRINT_INPUT]
  [TS6 FILEIN <ts6_filename>]
END OPTIONS
