# File generated by Flopy version 3.5.0.dev0 on 03/14/2024 at 22:23:46.
BEGIN options
  NEWTON
END options

BEGIN packages
  dis6  gwf_elder.nc  dis
  ic6  gwf_elder.nc  ic
  npf6  gwf_elder.nc  npf
  sto6  gwf_elder.sto  sto
  buy6  gwf_elder.buy  buy
  oc6  gwf_elder.oc  oc
END packages

