# File generated by Flopy version 3.5.0.dev0 on 03/14/2024 at 22:23:46.
BEGIN OPTIONS
  DENSEREF    1000.00000000
END OPTIONS

BEGIN DIMENSIONS
  NRHOSPECIES  1
END DIMENSIONS

BEGIN PACKAGEDATA
  1       0.70000000       0.00000000  gwt_elder  concentration
END PACKAGEDATA

