# File generated by Flopy version 3.5.0.dev0 on 03/14/2024 at 22:23:46.
BEGIN options
END options

BEGIN griddata
  iconvert
    CONSTANT  0
  ss
    CONSTANT  1.00000000E-05
  sy
    CONSTANT       0.10000000
END griddata

