# File generated by Flopy version 3.5.0.dev0 on 03/14/2024 at 22:23:46.
BEGIN options
END options

BEGIN continuous  FILEOUT  gwt_elder.obs.csv
  conc1  concentration  2 1 45
  conc2  concentration  51 1 45
END continuous  FILEOUT  gwt_elder.obs.csv

