# File generated by Flopy version 3.5.0.dev0 on 03/14/2024 at 22:23:47.
BEGIN options
END options

BEGIN packages
  dis6  gwt_elder.nc  dis
  ic6  gwt_elder.nc  ic
  adv6  gwt_elder.adv  adv
  dsp6  gwt_elder.nc  dsp
  mst6  gwt_elder.mst  mst
  cnc6  gwt_elder.nc  cnc
  oc6  gwt_elder.oc  oc
  obs6  gwt_elder.obs  obs_0
END packages

