# File generated by Flopy version 3.5.0.dev0 on 03/14/2024 at 22:23:47.
BEGIN options
  MAXERRORS  1000
END options

BEGIN timing
  TDIS6  elder.tdis
END timing

BEGIN models
  gwf6  gwf_elder.nam  gwf_elder
  gwt6  gwt_elder.nam  gwt_elder
END models

BEGIN exchanges
  gwf6-gwt6  elder.gwfgwt  gwf_elder  gwt_elder
END exchanges

BEGIN solutiongroup  1
  ims6  gwf_elder.ims  gwf_elder
  ims6  gwt_elder.ims  gwt_elder
END solutiongroup  1

