BEGIN OPTIONS
	LENGTH_UNITS METERS
    XORIGIN 10.0
    YORIGIN -5.0
END OPTIONS

BEGIN DIMENSIONS
	NODES 9
	NJA 33
	NVERT 16
END DIMENSIONS

BEGIN GRIDDATA
	TOP
		CONSTANT 0.
	BOT
		CONSTANT -2
	AREA
		INTERNAL FACTOR 1
		1.0 1.0 1.0 1.0 1.0 1.0 1.0 1.0 1.0
END GRIDDATA

BEGIN CONNECTIONDATA
	IHC
		CONSTANT 1
	IAC
		INTERNAL FACTOR 1
		3 4 3 4 5 4 3 4 3
	JA
		INTERNAL FACTOR 1
		1 2 4
		2 1 3 5
		3 2 6
		4 1 5 7
		5 2 4 6 8
		6 3 5 9
		7 4 8
		8 5 7 9
		9 6 8

	CL12
		INTERNAL FACTOR 1
		0 0.5 0.5
		0 0.5 0.5 0.5
		0 0.5 0.5
		0 0.5 0.5 0.5
		0 0.5 0.5 0.5 0.5
		0 0.5 0.5 0.5
		0 0.5 0.5
		0 0.5 0.5 0.5
		0 0.5 0.5

	HWVA
		INTERNAL FACTOR 1
		0 1.0 1.0
		0 1.0 1.0 1.0
		0 1.0 1.0
		0 1.0 1.0 1.0
		0 1.0 1.0 1.0 1.0
		0 1.0 1.0 1.0
		0 1.0 1.0
		0 1.0 1.0 1.0
		0 1.0 1.0
END CONNECTIONDATA

BEGIN VERTICES
	1   0.0  0.0
	2   0.0  1.0
	3   0.0  2.0
	4   0.0  3.0
	5   1.0  0.0
	6   1.0  1.0
	7   1.0  2.0
	8   1.0  3.0
	9   2.0  0.0
	10  2.0  1.0
	11  2.0  2.0
	12  2.0  3.0
	13  3.0  0.0
	14  3.0  1.0
	15  3.0  2.0
	16  3.0  3.0
END VERTICES

BEGIN CELL2D
	1 0.5 0.5 4 1 2 6 5 
	2 0.5 1.5 4 2 3 7 6
	3 0.5 2.5 4 3 4 8 7
	4 1.5 0.5 4 5 6 10 9
	5 1.5 1.5 4 6 7 11 10
	6 1.5 2.5 4 7 8 12 11
	7 2.5 0.5 4 9 10 14 13
	8 2.5 1.5 4 10 11 15 14
	9 2.5 2.5 4 11 12 16 15
END CELL2D