BEGIN OPTIONS
	MEMORY_PRINT_OPTION SUMMARY
END OPTIONS

BEGIN TIMING
	TDIS6 mfsim.tdis
END TIMING

BEGIN MODELS
	GWF6 modelA/modelA.nam modelA
END MODELS

BEGIN EXCHANGES
END EXCHANGES

BEGIN SOLUTIONGROUP 1
	IMS6 solution.ims modelA
END SOLUTIONGROUP