# File generated by Flopy version 3.5.0.dev0 on 03/14/2024 at 08:52:40.
BEGIN OPTIONS
END OPTIONS

BEGIN PACKAGES
  dis6  flow15.nc
  ic6  flow15.nc
  npf6  flow15.nc
  chd6  flow15.nc
  oc6  flow15.oc
  rch6  flow15.nc
END PACKAGES

