# File generated by Flopy version 3.5.0.dev0 on 03/14/2024 at 08:52:40.
BEGIN OPTIONS
  BUDGET  FILEOUT  flow15_flow.cbc
  HEAD  FILEOUT  flow15_flow.hds
END OPTIONS

BEGIN PERIOD  1
  SAVE  head  all
  SAVE  budget  all
  PRINT  head  all
  PRINT  budget  all
END PERIOD  1

