# File generated by Flopy version 3.5.0.dev0 on 03/14/2024 at 08:52:40.
BEGIN Options
  TIME_UNITS  days
  START_DATE_TIME  1997-07-16t19:20:30.45+01:00
END Options

BEGIN Dimensions
  NPER  1
END Dimensions

BEGIN PERIODDATA
       1.00000000  1       1.00000000
END PERIODDATA

