# File generated by Flopy version 3.5.0.dev0 on 03/14/2024 at 08:52:40.
BEGIN options
  PRINT_OPTION  all
  COMPLEXITY  simple
END options

BEGIN nonlinear
  OUTER_DVCLOSE  9.99999970E-06
  OUTER_MAXIMUM  50
  UNDER_RELAXATION  none
END nonlinear

BEGIN linear
  INNER_MAXIMUM  30
  INNER_DVCLOSE  1.00000000E-06
  inner_rclose  9.99999970E-06
  LINEAR_ACCELERATION  cg
END linear

