# File generated by Flopy version 3.5.0.dev0 on 03/14/2024 at 08:52:40.
BEGIN OPTIONS
  MEMORY_PRINT_OPTION  all
END OPTIONS

BEGIN TIMING
  TDIS6  flow15.tdis
END TIMING

BEGIN MODELS
  gwf6  flow15.nam  flow15
END MODELS

BEGIN EXCHANGES
END EXCHANGES

BEGIN SOLUTIONGROUP  1
  ims6  flow15.ims  flow15
END SOLUTIONGROUP  1

