BEGIN OPTIONS
  HEAD FILEOUT .\modelA\heads\modelA.hds
END OPTIONS

BEGIN PERIOD 1
  SAVE HEAD ALL
  PRINT HEAD ALL
END PERIOD