# NPF6 input file, prepared by MF5to6 on 3/16/2021 at 15:56:08.

BEGIN Options
  PERCHED
  VARIABLECV  DEWATERED
  SAVE_FLOWS  mf6_child_1_CHILD.cbc
END Options

BEGIN GRIDDATA
  Icelltype LAYERED
    CONSTANT  0
  K  LAYERED
    INTERNAL  FACTOR  1.0  IPRN   12
  0.1611000E-02  0.1611000E-02  0.1611000E-02  0.1611000E-02  0.1611000E-02  0.1611000E-02  0.1611000E-02  0.1611000E-02  0.1611000E-02  0.1611000E-02
  0.1611000E-02  0.1611000E-02  0.1611000E-02  0.1611000E-02  0.1611000E-02  0.1611000E-02  0.1611000E-02  0.1611000E-02  0.1611000E-02  0.1611000E-02
  0.1611000E-02  0.1611000E-02  0.1611000E-02  0.1611000E-02  0.1611000E-02  0.1611000E-02  0.1611000E-02  0.1611000E-02  0.1611000E-02  0.1611000E-02
  0.1611000E-02  0.1611000E-02  0.1611000E-02  0.1611000E-02  0.1611000E-02  0.1611000E-02  0.1611000E-02  0.1611000E-02  0.1611000E-02  0.1611000E-02
  0.1611000E-02  0.1611000E-02  0.1611000E-02  0.1611000E-02  0.1611000E-02  0.1611000E-02  0.1611000E-02  0.1611000E-02  0.1611000E-02  0.1611000E-02
  0.1611000E-02  0.1611000E-02  0.1611000E-02  0.1611000E-02  0.1611000E-02  0.1611000E-02  0.1611000E-02  0.1611000E-02  0.1611000E-02  0.1611000E-02
  0.1611000E-02  0.1611000E-02  0.1611000E-02  0.1611000E-02  0.1611000E-02  0.1611000E-02  0.1611000E-02  0.1611000E-02  0.1611000E-02  0.1611000E-02
  0.1611000E-02  0.1611000E-02  0.1611000E-02  0.1611000E-02  0.1611000E-02  0.1611000E-02  0.1611000E-02  0.1611000E-02  0.1611000E-02  0.1611000E-02
  0.1611000E-02  0.1611000E-02  0.1611000E-02  0.1611000E-02  0.1611000E-02  0.1611000E-02  0.1611000E-02  0.1611000E-02  0.1611000E-02  0.1611000E-02
  0.1611000E-02  0.1611000E-02  0.1611000E-02  0.1611000E-02  0.1611000E-02  0.1611000E-02  0.1611000E-02  0.1611000E-02  0.1611000E-02  0.1611000E-02
  0.1611000E-02  0.1611000E-02  0.1611000E-02  0.1611000E-02  0.1611000E-02  0.1611000E-02  0.1611000E-02  0.1611000E-02  0.1611000E-02  0.1611000E-02
  0.1611000E-02  0.1611000E-02  0.1611000E-02  0.1611000E-02  0.1611000E-02  0.1611000E-02  0.1611000E-02  0.1611000E-02  0.1611000E-02  0.1611000E-02
  0.1611000E-02  0.1611000E-02  0.1611000E-02  0.1611000E-02  0.1611000E-02  0.1611000E-02  0.1611000E-02  0.1611000E-02  0.1611000E-02  0.1611000E-02
  0.1611000E-02  0.1611000E-02  0.1611000E-02  0.1611000E-02  0.1611000E-02  0.1611000E-02  0.1611000E-02  0.1611000E-02  0.1611000E-02  0.1611000E-02
  0.1611000E-02  0.1611000E-02  0.1611000E-02  0.1611000E-02
  0.1611000E-02  0.1611000E-02  0.1611000E-02  0.1611000E-02  0.1611000E-02  0.1611000E-02  0.1611000E-02  0.1611000E-02  0.1611000E-02  0.1611000E-02
  0.1611000E-02  0.1611000E-02  0.1611000E-02  0.1611000E-02  0.1611000E-02  0.1611000E-02  0.1611000E-02  0.1611000E-02  0.1611000E-02  0.1611000E-02
  0.1611000E-02  0.1611000E-02  0.1611000E-02  0.1611000E-02  0.1611000E-02  0.1611000E-02  0.1611000E-02  0.1611000E-02  0.1611000E-02  0.1611000E-02
  0.1611000E-02  0.1611000E-02  0.1611000E-02  0.1611000E-02  0.1611000E-02  0.1611000E-02  0.1611000E-02  0.1611000E-02  0.1611000E-02  0.1611000E-02
  0.1611000E-02  0.1611000E-02  0.1611000E-02  0.1611000E-02  0.1611000E-02  0.1611000E-02  0.1611000E-02  0.1611000E-02  0.1611000E-02  0.1611000E-02
  0.1611000E-02  0.1611000E-02  0.1611000E-02  0.1611000E-02  0.1611000E-02  0.1611000E-02  0.1611000E-02  0.1611000E-02  0.1611000E-02  0.1611000E-02
  0.1611000E-02  0.1611000E-02  0.1611000E-02  0.1611000E-02  0.1611000E-02  0.1611000E-02  0.1611000E-02  0.1611000E-02  0.1611000E-02  0.1611000E-02
  0.1611000E-02  0.1611000E-02  0.1611000E-02  0.1611000E-02  0.1611000E-02  0.1611000E-02  0.1611000E-02  0.1611000E-02  0.1611000E-02  0.1611000E-02
  0.1611000E-02  0.1611000E-02  0.1611000E-02  0.1611000E-02  0.1611000E-02  0.1611000E-02  0.1611000E-02  0.1611000E-02  0.1611000E-02  0.1611000E-02
  0.1611000E-02  0.1611000E-02  0.1611000E-02  0.1611000E-02  0.1611000E-02  0.1611000E-02  0.1611000E-02  0.1611000E-02  0.1611000E-02  0.1611000E-02
  0.1611000E-02  0.1611000E-02  0.1611000E-02  0.1611000E-02  0.1611000E-02  0.1611000E-02  0.1611000E-02  0.1611000E-02  0.1611000E-02  0.1611000E-02
  0.1611000E-02  0.1611000E-02  0.1611000E-02  0.1611000E-02  0.1611000E-02  0.1611000E-02  0.1611000E-02  0.1611000E-02  0.1611000E-02  0.1611000E-02
  0.1611000E-02  0.1611000E-02  0.1611000E-02  0.1611000E-02  0.1611000E-02  0.1611000E-02  0.1611000E-02  0.1611000E-02  0.1611000E-02  0.1611000E-02
  0.1611000E-02  0.1611000E-02  0.1611000E-02  0.1611000E-02  0.1611000E-02  0.1611000E-02  0.1611000E-02  0.1611000E-02  0.1611000E-02  0.1611000E-02
  0.1611000E-02  0.1611000E-02  0.1611000E-02  0.1611000E-02
  0.1611000E-02  0.1611000E-02  0.1611000E-02  0.1611000E-02  0.1611000E-02  0.1611000E-02  0.1611000E-02  0.1611000E-02  0.1611000E-02  0.1611000E-02
  0.1611000E-02  0.1611000E-02  0.1611000E-02  0.1611000E-02  0.1611000E-02  0.1611000E-02  0.1611000E-02  0.1611000E-02  0.1611000E-02  0.1611000E-02
  0.1611000E-02  0.1611000E-02  0.1611000E-02  0.1611000E-02  0.1611000E-02  0.1611000E-02  0.1611000E-02  0.1611000E-02  0.1611000E-02  0.1611000E-02
  0.1611000E-02  0.1611000E-02  0.1611000E-02  0.1611000E-02  0.1611000E-02  0.1611000E-02  0.1611000E-02  0.1611000E-02  0.1611000E-02  0.1611000E-02
  0.1611000E-02  0.1611000E-02  0.1611000E-02  0.1611000E-02  0.1611000E-02  0.1611000E-02  0.1611000E-02  0.1611000E-02  0.1611000E-02  0.1611000E-02
  0.1611000E-02  0.1611000E-02  0.1611000E-02  0.1611000E-02  0.1611000E-02  0.1611000E-02  0.1611000E-02  0.1611000E-02  0.1611000E-02  0.1611000E-02
  0.1611000E-02  0.1611000E-02  0.1611000E-02  0.1611000E-02  0.1611000E-02  0.1611000E-02  0.1611000E-02  0.1611000E-02  0.1611000E-02  0.1611000E-02
  0.1611000E-02  0.1611000E-02  0.1611000E-02  0.1611000E-02  0.1611000E-02  0.1611000E-02  0.1611000E-02  0.1611000E-02  0.1611000E-02  0.1611000E-02
  0.1611000E-02  0.1611000E-02  0.1611000E-02  0.1611000E-02  0.1611000E-02  0.1611000E-02  0.1611000E-02  0.1611000E-02  0.1611000E-02  0.1611000E-02
  0.1611000E-02  0.1611000E-02  0.1611000E-02  0.1611000E-02  0.1611000E-02  0.1611000E-02  0.1611000E-02  0.1611000E-02  0.1611000E-02  0.1611000E-02
  0.1611000E-02  0.1611000E-02  0.1611000E-02  0.1611000E-02  0.1611000E-02  0.1611000E-02  0.1611000E-02  0.1611000E-02  0.1611000E-02  0.1611000E-02
  0.1611000E-02  0.1611000E-02  0.1611000E-02  0.1611000E-02  0.1611000E-02  0.1611000E-02  0.1611000E-02  0.1611000E-02  0.1611000E-02  0.1611000E-02
  0.1611000E-02  0.1611000E-02  0.1611000E-02  0.1611000E-02  0.1611000E-02  0.1611000E-02  0.1611000E-02  0.1611000E-02  0.1611000E-02  0.1611000E-02
  0.1611000E-02  0.1611000E-02  0.1611000E-02  0.1611000E-02  0.1611000E-02  0.1611000E-02  0.1611000E-02  0.1611000E-02  0.1611000E-02  0.1611000E-02
  0.1611000E-02  0.1611000E-02  0.1611000E-02  0.1611000E-02
  0.1611000E-02  0.1611000E-02  0.1611000E-02  0.1611000E-02  0.1611000E-02  0.1611000E-02  0.1611000E-02  0.1611000E-02  0.1611000E-02  0.1611000E-02
  0.1611000E-02  0.1611000E-02  0.1611000E-02  0.1611000E-02  0.1611000E-02  0.1611000E-02  0.1611000E-02  0.1611000E-02  0.1611000E-02  0.1611000E-02
  0.1611000E-02  0.1611000E-02  0.1611000E-02  0.1611000E-02  0.1611000E-02  0.1611000E-02  0.1611000E-02  0.1611000E-02  0.1611000E-02  0.1611000E-02
  0.1611000E-02  0.1611000E-02  0.1611000E-02  0.1611000E-02  0.1611000E-02  0.1611000E-02  0.1611000E-02  0.1611000E-02  0.1611000E-02  0.1611000E-02
  0.1611000E-02  0.1611000E-02  0.1611000E-02  0.1611000E-02  0.1611000E-02  0.1611000E-02  0.1611000E-02  0.1611000E-02  0.1611000E-02  0.1611000E-02
  0.1611000E-02  0.1611000E-02  0.1611000E-02  0.1611000E-02  0.1611000E-02  0.1611000E-02  0.1611000E-02  0.1611000E-02  0.1611000E-02  0.1611000E-02
  0.1611000E-02  0.1611000E-02  0.1611000E-02  0.1611000E-02  0.1611000E-02  0.1611000E-02  0.1611000E-02  0.1611000E-02  0.1611000E-02  0.1611000E-02
  0.1611000E-02  0.1611000E-02  0.1611000E-02  0.1611000E-02  0.1611000E-02  0.1611000E-02  0.1611000E-02  0.1611000E-02  0.1611000E-02  0.1611000E-02
  0.1611000E-02  0.1611000E-02  0.1611000E-02  0.1611000E-02  0.1611000E-02  0.1611000E-02  0.1611000E-02  0.1611000E-02  0.1611000E-02  0.1611000E-02
  0.1611000E-02  0.1611000E-02  0.1611000E-02  0.1611000E-02  0.1611000E-02  0.1611000E-02  0.1611000E-02  0.1611000E-02  0.1611000E-02  0.1611000E-02
  0.1611000E-02  0.1611000E-02  0.1611000E-02  0.1611000E-02  0.1611000E-02  0.1611000E-02  0.1611000E-02  0.1611000E-02  0.1611000E-02  0.1611000E-02
  0.1611000E-02  0.1611000E-02  0.1611000E-02  0.1611000E-02  0.1611000E-02  0.1611000E-02  0.1611000E-02  0.1611000E-02  0.1611000E-02  0.1611000E-02
  0.1611000E-02  0.1611000E-02  0.1611000E-02  0.1611000E-02  0.1611000E-02  0.1611000E-02  0.1611000E-02  0.1611000E-02  0.1611000E-02  0.1611000E-02
  0.1611000E-02  0.1611000E-02  0.1611000E-02  0.1611000E-02  0.1611000E-02  0.1611000E-02  0.1611000E-02  0.1611000E-02  0.1611000E-02  0.1611000E-02
  0.1611000E-02  0.1611000E-02  0.1611000E-02  0.1611000E-02
  0.1611000E-02  0.1611000E-02  0.1611000E-02  0.1611000E-02  0.1611000E-02  0.1611000E-02  0.1611000E-02  0.1611000E-02  0.1611000E-02  0.1611000E-02
  0.1611000E-02  0.1611000E-02  0.1611000E-02  0.1611000E-02  0.1611000E-02  0.1611000E-02  0.1611000E-02  0.1611000E-02  0.1611000E-02  0.1611000E-02
  0.1611000E-02  0.1611000E-02  0.1611000E-02  0.1611000E-02  0.1611000E-02  0.1611000E-02  0.1611000E-02  0.1611000E-02  0.1611000E-02  0.1611000E-02
  0.1611000E-02  0.1611000E-02  0.1611000E-02  0.1611000E-02  0.1611000E-02  0.1611000E-02  0.1611000E-02  0.1611000E-02  0.1611000E-02  0.1611000E-02
  0.1611000E-02  0.1611000E-02  0.1611000E-02  0.1611000E-02  0.1611000E-02  0.1611000E-02  0.1611000E-02  0.1611000E-02  0.1611000E-02  0.1611000E-02
  0.1611000E-02  0.1611000E-02  0.1611000E-02  0.1611000E-02  0.1611000E-02  0.1611000E-02  0.1611000E-02  0.1611000E-02  0.1611000E-02  0.1611000E-02
  0.1611000E-02  0.1611000E-02  0.1611000E-02  0.1611000E-02  0.1611000E-02  0.1611000E-02  0.1611000E-02  0.1611000E-02  0.1611000E-02  0.1611000E-02
  0.1611000E-02  0.1611000E-02  0.1611000E-02  0.1611000E-02  0.1611000E-02  0.1611000E-02  0.1611000E-02  0.1611000E-02  0.1611000E-02  0.1611000E-02
  0.1611000E-02  0.1611000E-02  0.1611000E-02  0.1611000E-02  0.1611000E-02  0.1611000E-02  0.1611000E-02  0.1611000E-02  0.1611000E-02  0.1611000E-02
  0.1611000E-02  0.1611000E-02  0.1611000E-02  0.1611000E-02  0.1611000E-02  0.1611000E-02  0.1611000E-02  0.1611000E-02  0.1611000E-02  0.1611000E-02
  0.1611000E-02  0.1611000E-02  0.1611000E-02  0.1611000E-02  0.1611000E-02  0.1611000E-02  0.1611000E-02  0.1611000E-02  0.1611000E-02  0.1611000E-02
  0.1611000E-02  0.1611000E-02  0.1611000E-02  0.1611000E-02  0.1611000E-02  0.1611000E-02  0.1611000E-02  0.1611000E-02  0.1611000E-02  0.1611000E-02
  0.1611000E-02  0.1611000E-02  0.1611000E-02  0.1611000E-02  0.1611000E-02  0.1611000E-02  0.1611000E-02  0.1611000E-02  0.1611000E-02  0.1611000E-02
  0.1611000E-02  0.1611000E-02  0.1611000E-02  0.1611000E-02  0.1611000E-02  0.1611000E-02  0.1611000E-02  0.1611000E-02  0.1611000E-02  0.1611000E-02
  0.1611000E-02  0.1611000E-02  0.1611000E-02  0.1611000E-02
  0.1611000E-02  0.1611000E-02  0.1611000E-02  0.1611000E-02  0.1611000E-02  0.1611000E-02  0.1611000E-02  0.1611000E-02  0.1611000E-02  0.1611000E-02
  0.1611000E-02  0.1611000E-02  0.1611000E-02  0.1611000E-02  0.1611000E-02  0.1611000E-02  0.1611000E-02  0.1611000E-02  0.1611000E-02  0.1611000E-02
  0.1611000E-02  0.1611000E-02  0.1611000E-02  0.1611000E-02  0.1611000E-02  0.1611000E-02  0.1611000E-02  0.1611000E-02  0.1611000E-02  0.1611000E-02
  0.1611000E-02  0.1611000E-02  0.1611000E-02  0.1611000E-02  0.1611000E-02  0.1611000E-02  0.1611000E-02  0.1611000E-02  0.1611000E-02  0.1611000E-02
  0.1611000E-02  0.1611000E-02  0.1611000E-02  0.1611000E-02  0.1611000E-02  0.1611000E-02  0.1611000E-02  0.1611000E-02  0.1611000E-02  0.1611000E-02
  0.1611000E-02  0.1611000E-02  0.1611000E-02  0.1611000E-02  0.1611000E-02  0.1611000E-02  0.1611000E-02  0.1611000E-02  0.1611000E-02  0.1611000E-02
  0.1611000E-02  0.1611000E-02  0.1611000E-02  0.1611000E-02  0.1611000E-02  0.1611000E-02  0.1611000E-02  0.1611000E-02  0.1611000E-02  0.1611000E-02
  0.1611000E-02  0.1611000E-02  0.1611000E-02  0.1611000E-02  0.1611000E-02  0.1611000E-02  0.1611000E-02  0.1611000E-02  0.1611000E-02  0.1611000E-02
  0.1611000E-02  0.1611000E-02  0.1611000E-02  0.1611000E-02  0.1611000E-02  0.1611000E-02  0.1611000E-02  0.1611000E-02  0.1611000E-02  0.1611000E-02
  0.1611000E-02  0.1611000E-02  0.1611000E-02  0.1611000E-02  0.1611000E-02  0.1611000E-02  0.1611000E-02  0.1611000E-02  0.1611000E-02  0.1611000E-02
  0.1611000E-02  0.1611000E-02  0.1611000E-02  0.1611000E-02  0.1611000E-02  0.1611000E-02  0.1611000E-02  0.1611000E-02  0.1611000E-02  0.1611000E-02
  0.1611000E-02  0.1611000E-02  0.1611000E-02  0.1611000E-02  0.1611000E-02  0.1611000E-02  0.1611000E-02  0.1611000E-02  0.1611000E-02  0.1611000E-02
  0.1611000E-02  0.1611000E-02  0.1611000E-02  0.1611000E-02  0.1611000E-02  0.1611000E-02  0.1611000E-02  0.1611000E-02  0.1611000E-02  0.1611000E-02
  0.1611000E-02  0.1611000E-02  0.1611000E-02  0.1611000E-02  0.1611000E-02  0.1611000E-02  0.1611000E-02  0.1611000E-02  0.1611000E-02  0.1611000E-02
  0.1611000E-02  0.1611000E-02  0.1611000E-02  0.1611000E-02
  0.1611000E-02  0.1611000E-02  0.1611000E-02  0.1611000E-02  0.1611000E-02  0.1611000E-02  0.1611000E-02  0.1611000E-02  0.1611000E-02  0.1611000E-02
  0.1611000E-02  0.1611000E-02  0.1611000E-02  0.1611000E-02  0.1611000E-02  0.1611000E-02  0.1611000E-02  0.1611000E-02  0.1611000E-02  0.1611000E-02
  0.1611000E-02  0.1611000E-02  0.1611000E-02  0.1611000E-02  0.1611000E-02  0.1611000E-02  0.1611000E-02  0.1611000E-02  0.1611000E-02  0.1611000E-02
  0.1611000E-02  0.1611000E-02  0.1611000E-02  0.1611000E-02  0.1611000E-02  0.1611000E-02  0.1611000E-02  0.1611000E-02  0.1611000E-02  0.1611000E-02
  0.1611000E-02  0.1611000E-02  0.1611000E-02  0.1611000E-02  0.1611000E-02  0.1611000E-02  0.1611000E-02  0.1611000E-02  0.1611000E-02  0.1611000E-02
  0.1611000E-02  0.1611000E-02  0.1611000E-02  0.1611000E-02  0.1611000E-02  0.1611000E-02  0.1611000E-02  0.1611000E-02  0.1611000E-02  0.1611000E-02
  0.1611000E-02  0.1611000E-02  0.1611000E-02  0.1611000E-02  0.1611000E-02  0.1611000E-02  0.1611000E-02  0.1611000E-02  0.1611000E-02  0.1611000E-02
  0.1611000E-02  0.1611000E-02  0.1611000E-02  0.1611000E-02  0.1611000E-02  0.1611000E-02  0.1611000E-02  0.1611000E-02  0.1611000E-02  0.1611000E-02
  0.1611000E-02  0.1611000E-02  0.1611000E-02  0.1611000E-02  0.1611000E-02  0.1611000E-02  0.1611000E-02  0.1611000E-02  0.1611000E-02  0.1611000E-02
  0.1611000E-02  0.1611000E-02  0.1611000E-02  0.1611000E-02  0.1611000E-02  0.1611000E-02  0.1611000E-02  0.1611000E-02  0.1611000E-02  0.1611000E-02
  0.1611000E-02  0.1611000E-02  0.1611000E-02  0.1611000E-02  0.1611000E-02  0.1611000E-02  0.1611000E-02  0.1611000E-02  0.1611000E-02  0.1611000E-02
  0.1611000E-02  0.1611000E-02  0.1611000E-02  0.1611000E-02  0.1611000E-02  0.1611000E-02  0.1611000E-02  0.1611000E-02  0.1611000E-02  0.1611000E-02
  0.1611000E-02  0.1611000E-02  0.1611000E-02  0.1611000E-02  0.1611000E-02  0.1611000E-02  0.1611000E-02  0.1611000E-02  0.1611000E-02  0.1611000E-02
  0.1611000E-02  0.1611000E-02  0.1611000E-02  0.1611000E-02  0.1611000E-02  0.1611000E-02  0.1611000E-02  0.1611000E-02  0.1611000E-02  0.1611000E-02
  0.1611000E-02  0.1611000E-02  0.1611000E-02  0.1611000E-02
  0.1611000E-02  0.1611000E-02  0.1611000E-02  0.1611000E-02  0.1611000E-02  0.1611000E-02  0.1611000E-02  0.1611000E-02  0.1611000E-02  0.1611000E-02
  0.1611000E-02  0.1611000E-02  0.1611000E-02  0.1611000E-02  0.1611000E-02  0.1611000E-02  0.1611000E-02  0.1611000E-02  0.1611000E-02  0.1611000E-02
  0.1611000E-02  0.1611000E-02  0.1611000E-02  0.1611000E-02  0.1611000E-02  0.1611000E-02  0.1611000E-02  0.1611000E-02  0.1611000E-02  0.1611000E-02
  0.1611000E-02  0.1611000E-02  0.1611000E-02  0.1611000E-02  0.1611000E-02  0.1611000E-02  0.1611000E-02  0.1611000E-02  0.1611000E-02  0.1611000E-02
  0.1611000E-02  0.1611000E-02  0.1611000E-02  0.1611000E-02  0.1611000E-02  0.1611000E-02  0.1611000E-02  0.1611000E-02  0.1611000E-02  0.1611000E-02
  0.1611000E-02  0.1611000E-02  0.1611000E-02  0.1611000E-02  0.1611000E-02  0.1611000E-02  0.1611000E-02  0.1611000E-02  0.1611000E-02  0.1611000E-02
  0.1611000E-02  0.1611000E-02  0.1611000E-02  0.1611000E-02  0.1611000E-02  0.1611000E-02  0.1611000E-02  0.1611000E-02  0.1611000E-02  0.1611000E-02
  0.1611000E-02  0.1611000E-02  0.1611000E-02  0.1611000E-02  0.1611000E-02  0.1611000E-02  0.1611000E-02  0.1611000E-02  0.1611000E-02  0.1611000E-02
  0.1611000E-02  0.1611000E-02  0.1611000E-02  0.1611000E-02  0.1611000E-02  0.1611000E-02  0.1611000E-02  0.1611000E-02  0.1611000E-02  0.1611000E-02
  0.1611000E-02  0.1611000E-02  0.1611000E-02  0.1611000E-02  0.1611000E-02  0.1611000E-02  0.1611000E-02  0.1611000E-02  0.1611000E-02  0.1611000E-02
  0.1611000E-02  0.1611000E-02  0.1611000E-02  0.1611000E-02  0.1611000E-02  0.1611000E-02  0.1611000E-02  0.1611000E-02  0.1611000E-02  0.1611000E-02
  0.1611000E-02  0.1611000E-02  0.1611000E-02  0.1611000E-02  0.1611000E-02  0.1611000E-02  0.1611000E-02  0.1611000E-02  0.1611000E-02  0.1611000E-02
  0.1611000E-02  0.1611000E-02  0.1611000E-02  0.1611000E-02  0.1611000E-02  0.1611000E-02  0.1611000E-02  0.1611000E-02  0.1611000E-02  0.1611000E-02
  0.1611000E-02  0.1611000E-02  0.1611000E-02  0.1611000E-02  0.1611000E-02  0.1611000E-02  0.1611000E-02  0.1611000E-02  0.1611000E-02  0.1611000E-02
  0.1611000E-02  0.1611000E-02  0.1611000E-02  0.1611000E-02
  0.1611000E-02  0.1611000E-02  0.1611000E-02  0.1611000E-02  0.1611000E-02  0.1611000E-02  0.1611000E-02  0.1611000E-02  0.1611000E-02  0.1611000E-02
  0.1611000E-02  0.1611000E-02  0.1611000E-02  0.1611000E-02  0.1611000E-02  0.1611000E-02  0.1611000E-02  0.1611000E-02  0.1611000E-02  0.1611000E-02
  0.1611000E-02  0.1611000E-02  0.1611000E-02  0.1611000E-02  0.1611000E-02  0.1611000E-02  0.1611000E-02  0.1611000E-02  0.1611000E-02  0.1611000E-02
  0.1611000E-02  0.1611000E-02  0.1611000E-02  0.1611000E-02  0.1611000E-02  0.1611000E-02  0.1611000E-02  0.1611000E-02  0.1611000E-02  0.1611000E-02
  0.1611000E-02  0.1611000E-02  0.1611000E-02  0.1611000E-02  0.1611000E-02  0.1611000E-02  0.1611000E-02  0.1611000E-02  0.1611000E-02  0.1611000E-02
  0.1611000E-02  0.1611000E-02  0.1611000E-02  0.1611000E-02  0.1611000E-02  0.1611000E-02  0.1611000E-02  0.1611000E-02  0.1611000E-02  0.1611000E-02
  0.1611000E-02  0.1611000E-02  0.1611000E-02  0.1611000E-02  0.1611000E-02  0.1611000E-02  0.1611000E-02  0.1611000E-02  0.1611000E-02  0.1611000E-02
  0.1611000E-02  0.1611000E-02  0.1611000E-02  0.1611000E-02  0.1611000E-02  0.1611000E-02  0.1611000E-02  0.1611000E-02  0.1611000E-02  0.1611000E-02
  0.1611000E-02  0.1611000E-02  0.1611000E-02  0.1611000E-02  0.1611000E-02  0.1611000E-02  0.1611000E-02  0.1611000E-02  0.1611000E-02  0.1611000E-02
  0.1611000E-02  0.1611000E-02  0.1611000E-02  0.1611000E-02  0.1611000E-02  0.1611000E-02  0.1611000E-02  0.1611000E-02  0.1611000E-02  0.1611000E-02
  0.1611000E-02  0.1611000E-02  0.1611000E-02  0.1611000E-02  0.1611000E-02  0.1611000E-02  0.1611000E-02  0.1611000E-02  0.1611000E-02  0.1611000E-02
  0.1611000E-02  0.1611000E-02  0.1611000E-02  0.1611000E-02  0.1611000E-02  0.1611000E-02  0.1611000E-02  0.1611000E-02  0.1611000E-02  0.1611000E-02
  0.1611000E-02  0.1611000E-02  0.1611000E-02  0.1611000E-02  0.1611000E-02  0.1611000E-02  0.1611000E-02  0.1611000E-02  0.1611000E-02  0.1611000E-02
  0.1611000E-02  0.1611000E-02  0.1611000E-02  0.1611000E-02  0.1611000E-02  0.1611000E-02  0.1611000E-02  0.1611000E-02  0.1611000E-02  0.1611000E-02
  0.1611000E-02  0.1611000E-02  0.1611000E-02  0.1611000E-02
  0.1350000E-03  0.1350000E-03  0.1350000E-03  0.1350000E-03  0.1350000E-03  0.1350000E-03  0.1350000E-03  0.1350000E-03  0.1350000E-03  0.1350000E-03
  0.1350000E-03  0.1350000E-03  0.1350000E-03  0.1350000E-03  0.1350000E-03  0.1350000E-03  0.1350000E-03  0.1350000E-03  0.1350000E-03  0.1350000E-03
  0.1350000E-03  0.1350000E-03  0.1350000E-03  0.1350000E-03  0.1350000E-03  0.1350000E-03  0.1350000E-03  0.1350000E-03  0.1350000E-03  0.1350000E-03
  0.1350000E-03  0.1350000E-03  0.1350000E-03  0.1350000E-03  0.1350000E-03  0.1350000E-03  0.1350000E-03  0.1350000E-03  0.1350000E-03  0.1350000E-03
  0.1350000E-03  0.1350000E-03  0.1350000E-03  0.1350000E-03  0.1350000E-03  0.1350000E-03  0.1350000E-03  0.1350000E-03  0.1350000E-03  0.1350000E-03
  0.1350000E-03  0.1350000E-03  0.1350000E-03  0.1350000E-03  0.1350000E-03  0.1350000E-03  0.1350000E-03  0.1350000E-03  0.1350000E-03  0.1350000E-03
  0.1350000E-03  0.1350000E-03  0.1350000E-03  0.1350000E-03  0.1350000E-03  0.1350000E-03  0.1350000E-03  0.1350000E-03  0.1350000E-03  0.1350000E-03
  0.1350000E-03  0.1350000E-03  0.1350000E-03  0.1350000E-03  0.1350000E-03  0.1350000E-03  0.1350000E-03  0.1350000E-03  0.1350000E-03  0.1350000E-03
  0.1350000E-03  0.1350000E-03  0.1350000E-03  0.1350000E-03  0.1350000E-03  0.1350000E-03  0.1350000E-03  0.1350000E-03  0.1350000E-03  0.1350000E-03
  0.1350000E-03  0.1350000E-03  0.1350000E-03  0.1350000E-03  0.1350000E-03  0.1350000E-03  0.1350000E-03  0.1350000E-03  0.1350000E-03  0.1350000E-03
  0.1350000E-03  0.1350000E-03  0.1350000E-03  0.1350000E-03  0.1350000E-03  0.1350000E-03  0.1350000E-03  0.1350000E-03  0.1350000E-03  0.1350000E-03
  0.1350000E-03  0.1350000E-03  0.1350000E-03  0.1350000E-03  0.1350000E-03  0.1350000E-03  0.1350000E-03  0.1350000E-03  0.1350000E-03  0.1350000E-03
  0.1350000E-03  0.1350000E-03  0.1350000E-03  0.1350000E-03  0.1350000E-03  0.1350000E-03  0.1611000E-02  0.1611000E-02  0.1611000E-02  0.1611000E-02
  0.1611000E-02  0.1611000E-02  0.1611000E-02  0.1611000E-02  0.1611000E-02  0.1611000E-02  0.1611000E-02  0.1611000E-02  0.1611000E-02  0.1611000E-02
  0.1611000E-02  0.1611000E-02  0.1611000E-02  0.1611000E-02
  0.1350000E-03  0.1350000E-03  0.1350000E-03  0.1350000E-03  0.1350000E-03  0.1350000E-03  0.1350000E-03  0.1350000E-03  0.1350000E-03  0.1350000E-03
  0.1350000E-03  0.1350000E-03  0.1350000E-03  0.1350000E-03  0.1350000E-03  0.1350000E-03  0.1350000E-03  0.1350000E-03  0.1350000E-03  0.1350000E-03
  0.1350000E-03  0.1350000E-03  0.1350000E-03  0.1350000E-03  0.1350000E-03  0.1350000E-03  0.1350000E-03  0.1350000E-03  0.1350000E-03  0.1350000E-03
  0.1350000E-03  0.1350000E-03  0.1350000E-03  0.1350000E-03  0.1350000E-03  0.1350000E-03  0.1350000E-03  0.1350000E-03  0.1350000E-03  0.1350000E-03
  0.1350000E-03  0.1350000E-03  0.1350000E-03  0.1350000E-03  0.1350000E-03  0.1350000E-03  0.1350000E-03  0.1350000E-03  0.1350000E-03  0.1350000E-03
  0.1350000E-03  0.1350000E-03  0.1350000E-03  0.1350000E-03  0.1350000E-03  0.1350000E-03  0.1350000E-03  0.1350000E-03  0.1350000E-03  0.1350000E-03
  0.1350000E-03  0.1350000E-03  0.1350000E-03  0.1350000E-03  0.1350000E-03  0.1350000E-03  0.1350000E-03  0.1350000E-03  0.1350000E-03  0.1350000E-03
  0.1350000E-03  0.1350000E-03  0.1350000E-03  0.1350000E-03  0.1350000E-03  0.1350000E-03  0.1350000E-03  0.1350000E-03  0.1350000E-03  0.1350000E-03
  0.1350000E-03  0.1350000E-03  0.1350000E-03  0.1350000E-03  0.1350000E-03  0.1350000E-03  0.1350000E-03  0.1350000E-03  0.1350000E-03  0.1350000E-03
  0.1350000E-03  0.1350000E-03  0.1350000E-03  0.1350000E-03  0.1350000E-03  0.1350000E-03  0.1350000E-03  0.1350000E-03  0.1350000E-03  0.1350000E-03
  0.1350000E-03  0.1350000E-03  0.1350000E-03  0.1350000E-03  0.1350000E-03  0.1350000E-03  0.1350000E-03  0.1350000E-03  0.1350000E-03  0.1350000E-03
  0.1350000E-03  0.1350000E-03  0.1350000E-03  0.1350000E-03  0.1350000E-03  0.1350000E-03  0.1350000E-03  0.1350000E-03  0.1350000E-03  0.1350000E-03
  0.1350000E-03  0.1350000E-03  0.1350000E-03  0.1350000E-03  0.1350000E-03  0.1350000E-03  0.1611000E-02  0.1611000E-02  0.1611000E-02  0.1611000E-02
  0.1611000E-02  0.1611000E-02  0.1611000E-02  0.1611000E-02  0.1611000E-02  0.1611000E-02  0.1611000E-02  0.1611000E-02  0.1611000E-02  0.1611000E-02
  0.1611000E-02  0.1611000E-02  0.1611000E-02  0.1611000E-02
  0.1350000E-03  0.1350000E-03  0.1350000E-03  0.1350000E-03  0.1350000E-03  0.1350000E-03  0.1350000E-03  0.1350000E-03  0.1350000E-03  0.1350000E-03
  0.1350000E-03  0.1350000E-03  0.1350000E-03  0.1350000E-03  0.1350000E-03  0.1350000E-03  0.1350000E-03  0.1350000E-03  0.1350000E-03  0.1350000E-03
  0.1350000E-03  0.1350000E-03  0.1350000E-03  0.1350000E-03  0.1350000E-03  0.1350000E-03  0.1350000E-03  0.1350000E-03  0.1350000E-03  0.1350000E-03
  0.1350000E-03  0.1350000E-03  0.1350000E-03  0.1350000E-03  0.1350000E-03  0.1350000E-03  0.1350000E-03  0.1350000E-03  0.1350000E-03  0.1350000E-03
  0.1350000E-03  0.1350000E-03  0.1350000E-03  0.1350000E-03  0.1350000E-03  0.1350000E-03  0.1350000E-03  0.1350000E-03  0.1350000E-03  0.1350000E-03
  0.1350000E-03  0.1350000E-03  0.1350000E-03  0.1350000E-03  0.1350000E-03  0.1350000E-03  0.1350000E-03  0.1350000E-03  0.1350000E-03  0.1350000E-03
  0.1350000E-03  0.1350000E-03  0.1350000E-03  0.1350000E-03  0.1350000E-03  0.1350000E-03  0.1350000E-03  0.1350000E-03  0.1350000E-03  0.1350000E-03
  0.1350000E-03  0.1350000E-03  0.1350000E-03  0.1350000E-03  0.1350000E-03  0.1350000E-03  0.1350000E-03  0.1350000E-03  0.1350000E-03  0.1350000E-03
  0.1350000E-03  0.1350000E-03  0.1350000E-03  0.1350000E-03  0.1350000E-03  0.1350000E-03  0.1350000E-03  0.1350000E-03  0.1350000E-03  0.1350000E-03
  0.1350000E-03  0.1350000E-03  0.1350000E-03  0.1350000E-03  0.1350000E-03  0.1350000E-03  0.1350000E-03  0.1350000E-03  0.1350000E-03  0.1350000E-03
  0.1350000E-03  0.1350000E-03  0.1350000E-03  0.1350000E-03  0.1350000E-03  0.1350000E-03  0.1350000E-03  0.1350000E-03  0.1350000E-03  0.1350000E-03
  0.1350000E-03  0.1350000E-03  0.1350000E-03  0.1350000E-03  0.1350000E-03  0.1350000E-03  0.1350000E-03  0.1350000E-03  0.1350000E-03  0.1350000E-03
  0.1350000E-03  0.1350000E-03  0.1350000E-03  0.1350000E-03  0.1350000E-03  0.1350000E-03  0.1611000E-02  0.1611000E-02  0.1611000E-02  0.1611000E-02
  0.1611000E-02  0.1611000E-02  0.1611000E-02  0.1611000E-02  0.1611000E-02  0.1611000E-02  0.1611000E-02  0.1611000E-02  0.1611000E-02  0.1611000E-02
  0.1611000E-02  0.1611000E-02  0.1611000E-02  0.1611000E-02
  0.1350000E-03  0.1350000E-03  0.1350000E-03  0.1350000E-03  0.1350000E-03  0.1350000E-03  0.1350000E-03  0.1350000E-03  0.1350000E-03  0.1350000E-03
  0.1350000E-03  0.1350000E-03  0.1350000E-03  0.1350000E-03  0.1350000E-03  0.1350000E-03  0.1350000E-03  0.1350000E-03  0.1350000E-03  0.1350000E-03
  0.1350000E-03  0.1350000E-03  0.1350000E-03  0.1350000E-03  0.1350000E-03  0.1350000E-03  0.1350000E-03  0.1350000E-03  0.1350000E-03  0.1350000E-03
  0.1350000E-03  0.1350000E-03  0.1350000E-03  0.1350000E-03  0.1350000E-03  0.1350000E-03  0.1350000E-03  0.1350000E-03  0.1350000E-03  0.1350000E-03
  0.1350000E-03  0.1350000E-03  0.1350000E-03  0.1350000E-03  0.1350000E-03  0.1350000E-03  0.1350000E-03  0.1350000E-03  0.1350000E-03  0.1350000E-03
  0.1350000E-03  0.1350000E-03  0.1350000E-03  0.1350000E-03  0.1350000E-03  0.1350000E-03  0.1350000E-03  0.1350000E-03  0.1350000E-03  0.1350000E-03
  0.1350000E-03  0.1350000E-03  0.1350000E-03  0.1350000E-03  0.1350000E-03  0.1350000E-03  0.1350000E-03  0.1350000E-03  0.1350000E-03  0.1350000E-03
  0.1350000E-03  0.1350000E-03  0.1350000E-03  0.1350000E-03  0.1350000E-03  0.1350000E-03  0.1350000E-03  0.1350000E-03  0.1350000E-03  0.1350000E-03
  0.1350000E-03  0.1350000E-03  0.1350000E-03  0.1350000E-03  0.1350000E-03  0.1350000E-03  0.1350000E-03  0.1350000E-03  0.1350000E-03  0.1350000E-03
  0.1350000E-03  0.1350000E-03  0.1350000E-03  0.1350000E-03  0.1350000E-03  0.1350000E-03  0.1350000E-03  0.1350000E-03  0.1350000E-03  0.1350000E-03
  0.1350000E-03  0.1350000E-03  0.1350000E-03  0.1350000E-03  0.1350000E-03  0.1350000E-03  0.1350000E-03  0.1350000E-03  0.1350000E-03  0.1350000E-03
  0.1350000E-03  0.1350000E-03  0.1350000E-03  0.1350000E-03  0.1350000E-03  0.1350000E-03  0.1350000E-03  0.1350000E-03  0.1350000E-03  0.1350000E-03
  0.1350000E-03  0.1350000E-03  0.1350000E-03  0.1350000E-03  0.1350000E-03  0.1350000E-03  0.1611000E-02  0.1611000E-02  0.1611000E-02  0.1611000E-02
  0.1611000E-02  0.1611000E-02  0.1611000E-02  0.1611000E-02  0.1611000E-02  0.1611000E-02  0.1611000E-02  0.1611000E-02  0.1611000E-02  0.1611000E-02
  0.1611000E-02  0.1611000E-02  0.1611000E-02  0.1611000E-02
  0.1350000E-03  0.1350000E-03  0.1350000E-03  0.1350000E-03  0.1350000E-03  0.1350000E-03  0.1350000E-03  0.1350000E-03  0.1350000E-03  0.1350000E-03
  0.1350000E-03  0.1350000E-03  0.1350000E-03  0.1350000E-03  0.1350000E-03  0.1350000E-03  0.1350000E-03  0.1350000E-03  0.1350000E-03  0.1350000E-03
  0.1350000E-03  0.1350000E-03  0.1350000E-03  0.1350000E-03  0.1350000E-03  0.1350000E-03  0.1350000E-03  0.1350000E-03  0.1350000E-03  0.1350000E-03
  0.1350000E-03  0.1350000E-03  0.1350000E-03  0.1350000E-03  0.1350000E-03  0.1350000E-03  0.1350000E-03  0.1350000E-03  0.1350000E-03  0.1350000E-03
  0.1350000E-03  0.1350000E-03  0.1350000E-03  0.1350000E-03  0.1350000E-03  0.1350000E-03  0.1350000E-03  0.1350000E-03  0.1350000E-03  0.1350000E-03
  0.1350000E-03  0.1350000E-03  0.1350000E-03  0.1350000E-03  0.1350000E-03  0.1350000E-03  0.1350000E-03  0.1350000E-03  0.1350000E-03  0.1350000E-03
  0.1350000E-03  0.1350000E-03  0.1350000E-03  0.1350000E-03  0.1350000E-03  0.1350000E-03  0.1350000E-03  0.1350000E-03  0.1350000E-03  0.1350000E-03
  0.1350000E-03  0.1350000E-03  0.1350000E-03  0.1350000E-03  0.1350000E-03  0.1350000E-03  0.1350000E-03  0.1350000E-03  0.1350000E-03  0.1350000E-03
  0.1350000E-03  0.1350000E-03  0.1350000E-03  0.1350000E-03  0.1350000E-03  0.1350000E-03  0.1350000E-03  0.1350000E-03  0.1350000E-03  0.1350000E-03